
---------- Begin Simulation Statistics ----------
final_tick                               1501644752100                       # Number of ticks from beginning of simulation (restored from checkpoints and never reset)
host_inst_rate                                 495532                       # Simulator instruction rate (inst/s)
host_mem_usage                               10726952                       # Number of bytes of host memory used
host_op_rate                                   821345                       # Simulator op (including micro ops) rate (op/s)
host_seconds                                  3574.56                       # Real time elapsed on the host
host_tick_rate                              420092628                       # Simulator tick rate (ticks/s)
sim_freq                                 1000000000000                       # Frequency of simulated ticks
sim_insts                                  1771308344                       # Number of instructions simulated
sim_ops                                    2935943284                       # Number of ops (including micro ops) simulated
sim_seconds                                  1.501645                       # Number of seconds simulated
sim_ticks                                1501644752100                       # Number of ticks simulated
system.cpu0.Branches                         77134962                       # Number of branches fetched
system.cpu0.committedInsts                  771308343                       # Number of instructions committed
system.cpu0.committedOps                   1465488261                       # Number of ops (including micro ops) committed
system.cpu0.dtb.rdAccesses                  308517073                       # TLB accesses on read requests
system.cpu0.dtb.rdMisses                       150886                       # TLB misses on read requests
system.cpu0.dtb.wrAccesses                  154260022                       # TLB accesses on write requests
system.cpu0.dtb.wrMisses                           34                       # TLB misses on write requests
system.cpu0.idle_fraction                           0                       # Percentage of idle cycles
system.cpu0.itb.rdAccesses                          0                       # TLB accesses on read requests
system.cpu0.itb.rdMisses                            0                       # TLB misses on read requests
system.cpu0.itb.wrAccesses                 1002702079                       # TLB accesses on write requests
system.cpu0.itb.wrMisses                           42                       # TLB misses on write requests
system.cpu0.not_idle_fraction                       1                       # Percentage of non-idle cycles
system.cpu0.numCycles                      4509443630                       # number of cpu cycles simulated
system.cpu0.numWorkItemsCompleted                   0                       # number of work items this cpu completed
system.cpu0.numWorkItemsStarted                     0                       # number of work items this cpu started
system.cpu0.num_busy_cycles                4509443630                       # Number of busy cycles
system.cpu0.num_cc_register_reads           385675062                       # number of times the CC registers were read
system.cpu0.num_cc_register_writes          462785634                       # number of times the CC registers were written
system.cpu0.num_conditional_control_insts     77133048                       # number of instructions that are conditional controls
system.cpu0.num_fp_alu_accesses                  4763                       # Number of float alu accesses
system.cpu0.num_fp_insts                         4763                       # number of float instructions
system.cpu0.num_fp_register_reads                7155                       # number of times the floating registers were read
system.cpu0.num_fp_register_writes               3554                       # number of times the floating registers were written
system.cpu0.num_func_calls                       1072                       # number of times a function call or return occured
system.cpu0.num_idle_cycles                         0                       # Number of idle cycles
system.cpu0.num_int_alu_accesses           1465484574                       # Number of integer alu accesses
system.cpu0.num_int_insts                  1465484574                       # number of integer instructions
system.cpu0.num_int_register_reads         2930965275                       # number of times the integer registers were read
system.cpu0.num_int_register_writes        1234089344                       # number of times the integer registers were written
system.cpu0.num_load_insts                  308517042                       # Number of load instructions
system.cpu0.num_mem_refs                    462777037                       # number of memory refs
system.cpu0.num_store_insts                 154259995                       # Number of store instructions
system.cpu0.num_vec_alu_accesses                    0                       # Number of vector alu accesses
system.cpu0.num_vec_insts                           0                       # number of vector instructions
system.cpu0.num_vec_register_reads                  0                       # number of times the vector registers were read
system.cpu0.num_vec_register_writes                 0                       # number of times the vector registers were written
system.cpu0.op_class::No_OpClass                 1022      0.00%      0.00% # Class of executed instruction
system.cpu0.op_class::IntAlu               1002707170     68.42%     68.42% # Class of executed instruction
system.cpu0.op_class::IntMult                      49      0.00%     68.42% # Class of executed instruction
system.cpu0.op_class::IntDiv                      217      0.00%     68.42% # Class of executed instruction
system.cpu0.op_class::FloatAdd                    194      0.00%     68.42% # Class of executed instruction
system.cpu0.op_class::FloatCmp                      0      0.00%     68.42% # Class of executed instruction
system.cpu0.op_class::FloatCvt                      0      0.00%     68.42% # Class of executed instruction
system.cpu0.op_class::FloatMult                     0      0.00%     68.42% # Class of executed instruction
system.cpu0.op_class::FloatMultAcc                  0      0.00%     68.42% # Class of executed instruction
system.cpu0.op_class::FloatDiv                      0      0.00%     68.42% # Class of executed instruction
system.cpu0.op_class::FloatMisc                     0      0.00%     68.42% # Class of executed instruction
system.cpu0.op_class::FloatSqrt                     0      0.00%     68.42% # Class of executed instruction
system.cpu0.op_class::SimdAdd                       0      0.00%     68.42% # Class of executed instruction
system.cpu0.op_class::SimdAddAcc                    0      0.00%     68.42% # Class of executed instruction
system.cpu0.op_class::SimdAlu                     634      0.00%     68.42% # Class of executed instruction
system.cpu0.op_class::SimdCmp                       0      0.00%     68.42% # Class of executed instruction
system.cpu0.op_class::SimdCvt                     910      0.00%     68.42% # Class of executed instruction
system.cpu0.op_class::SimdMisc                   1028      0.00%     68.42% # Class of executed instruction
system.cpu0.op_class::SimdMult                      0      0.00%     68.42% # Class of executed instruction
system.cpu0.op_class::SimdMultAcc                   0      0.00%     68.42% # Class of executed instruction
system.cpu0.op_class::SimdShift                     0      0.00%     68.42% # Class of executed instruction
system.cpu0.op_class::SimdShiftAcc                  0      0.00%     68.42% # Class of executed instruction
system.cpu0.op_class::SimdDiv                       0      0.00%     68.42% # Class of executed instruction
system.cpu0.op_class::SimdSqrt                      0      0.00%     68.42% # Class of executed instruction
system.cpu0.op_class::SimdFloatAdd                  0      0.00%     68.42% # Class of executed instruction
system.cpu0.op_class::SimdFloatAlu                  0      0.00%     68.42% # Class of executed instruction
system.cpu0.op_class::SimdFloatCmp                  0      0.00%     68.42% # Class of executed instruction
system.cpu0.op_class::SimdFloatCvt                  0      0.00%     68.42% # Class of executed instruction
system.cpu0.op_class::SimdFloatDiv                  0      0.00%     68.42% # Class of executed instruction
system.cpu0.op_class::SimdFloatMisc                 0      0.00%     68.42% # Class of executed instruction
system.cpu0.op_class::SimdFloatMult                 0      0.00%     68.42% # Class of executed instruction
system.cpu0.op_class::SimdFloatMultAcc              0      0.00%     68.42% # Class of executed instruction
system.cpu0.op_class::SimdFloatSqrt                 0      0.00%     68.42% # Class of executed instruction
system.cpu0.op_class::SimdReduceAdd                 0      0.00%     68.42% # Class of executed instruction
system.cpu0.op_class::SimdReduceAlu                 0      0.00%     68.42% # Class of executed instruction
system.cpu0.op_class::SimdReduceCmp                 0      0.00%     68.42% # Class of executed instruction
system.cpu0.op_class::SimdFloatReduceAdd            0      0.00%     68.42% # Class of executed instruction
system.cpu0.op_class::SimdFloatReduceCmp            0      0.00%     68.42% # Class of executed instruction
system.cpu0.op_class::SimdAes                       0      0.00%     68.42% # Class of executed instruction
system.cpu0.op_class::SimdAesMix                    0      0.00%     68.42% # Class of executed instruction
system.cpu0.op_class::SimdSha1Hash                  0      0.00%     68.42% # Class of executed instruction
system.cpu0.op_class::SimdSha1Hash2                 0      0.00%     68.42% # Class of executed instruction
system.cpu0.op_class::SimdSha256Hash                0      0.00%     68.42% # Class of executed instruction
system.cpu0.op_class::SimdSha256Hash2               0      0.00%     68.42% # Class of executed instruction
system.cpu0.op_class::SimdShaSigma2                 0      0.00%     68.42% # Class of executed instruction
system.cpu0.op_class::SimdShaSigma3                 0      0.00%     68.42% # Class of executed instruction
system.cpu0.op_class::SimdPredAlu                   0      0.00%     68.42% # Class of executed instruction
system.cpu0.op_class::MemRead               308516295     21.05%     89.47% # Class of executed instruction
system.cpu0.op_class::MemWrite              154259264     10.53%    100.00% # Class of executed instruction
system.cpu0.op_class::FloatMemRead                747      0.00%    100.00% # Class of executed instruction
system.cpu0.op_class::FloatMemWrite               731      0.00%    100.00% # Class of executed instruction
system.cpu0.op_class::IprAccess                     0      0.00%    100.00% # Class of executed instruction
system.cpu0.op_class::InstPrefetch                  0      0.00%    100.00% # Class of executed instruction
system.cpu0.op_class::total                1465488261                       # Class of executed instruction
system.cpu0.workload.numSyscalls                   37                       # Number of system calls
system.cpu1.Branches                        116148867                       # Number of branches fetched
system.cpu1.committedInsts                 1000000001                       # Number of instructions committed
system.cpu1.committedOps                   1470455023                       # Number of ops (including micro ops) committed
system.cpu1.dtb.rdAccesses                  152663212                       # TLB accesses on read requests
system.cpu1.dtb.rdMisses                        98031                       # TLB misses on read requests
system.cpu1.dtb.wrAccesses                   66167671                       # TLB accesses on write requests
system.cpu1.dtb.wrMisses                       137567                       # TLB misses on write requests
system.cpu1.idle_fraction                           0                       # Percentage of idle cycles
system.cpu1.itb.rdAccesses                          0                       # TLB accesses on read requests
system.cpu1.itb.rdMisses                            0                       # TLB misses on read requests
system.cpu1.itb.wrAccesses                 1315786198                       # TLB accesses on write requests
system.cpu1.itb.wrMisses                           63                       # TLB misses on write requests
system.cpu1.not_idle_fraction                       1                       # Percentage of non-idle cycles
system.cpu1.numCycles                      4509443700                       # number of cpu cycles simulated
system.cpu1.numWorkItemsCompleted                   0                       # number of work items this cpu completed
system.cpu1.numWorkItemsStarted                     0                       # number of work items this cpu started
system.cpu1.num_busy_cycles                4509443700                       # Number of busy cycles
system.cpu1.num_cc_register_reads           707772717                       # number of times the CC registers were read
system.cpu1.num_cc_register_writes          841933082                       # number of times the CC registers were written
system.cpu1.num_conditional_control_insts     98544066                       # number of instructions that are conditional controls
system.cpu1.num_fp_alu_accesses               5266799                       # Number of float alu accesses
system.cpu1.num_fp_insts                      5266799                       # number of float instructions
system.cpu1.num_fp_register_reads             2649026                       # number of times the floating registers were read
system.cpu1.num_fp_register_writes            2643720                       # number of times the floating registers were written
system.cpu1.num_func_calls                     524458                       # number of times a function call or return occured
system.cpu1.num_idle_cycles                         0                       # Number of idle cycles
system.cpu1.num_int_alu_accesses           1469917108                       # Number of integer alu accesses
system.cpu1.num_int_insts                  1469917108                       # number of integer instructions
system.cpu1.num_int_register_reads         3014824309                       # number of times the integer registers were read
system.cpu1.num_int_register_writes        1321244081                       # number of times the integer registers were written
system.cpu1.num_load_insts                  152586979                       # Number of load instructions
system.cpu1.num_mem_refs                    218679635                       # number of memory refs
system.cpu1.num_store_insts                  66092656                       # Number of store instructions
system.cpu1.num_vec_alu_accesses                    0                       # Number of vector alu accesses
system.cpu1.num_vec_insts                           0                       # number of vector instructions
system.cpu1.num_vec_register_reads                  0                       # number of times the vector registers were read
system.cpu1.num_vec_register_writes                 0                       # number of times the vector registers were written
system.cpu1.op_class::No_OpClass               517472      0.04%      0.04% # Class of executed instruction
system.cpu1.op_class::IntAlu               1215042269     82.63%     82.67% # Class of executed instruction
system.cpu1.op_class::IntMult                36191513      2.46%     85.13% # Class of executed instruction
system.cpu1.op_class::IntDiv                       42      0.00%     85.13% # Class of executed instruction
system.cpu1.op_class::FloatAdd                  11187      0.00%     85.13% # Class of executed instruction
system.cpu1.op_class::FloatCmp                      0      0.00%     85.13% # Class of executed instruction
system.cpu1.op_class::FloatCvt                      0      0.00%     85.13% # Class of executed instruction
system.cpu1.op_class::FloatMult                     0      0.00%     85.13% # Class of executed instruction
system.cpu1.op_class::FloatMultAcc                  0      0.00%     85.13% # Class of executed instruction
system.cpu1.op_class::FloatDiv                      0      0.00%     85.13% # Class of executed instruction
system.cpu1.op_class::FloatMisc                     0      0.00%     85.13% # Class of executed instruction
system.cpu1.op_class::FloatSqrt                     0      0.00%     85.13% # Class of executed instruction
system.cpu1.op_class::SimdAdd                       0      0.00%     85.13% # Class of executed instruction
system.cpu1.op_class::SimdAddAcc                    0      0.00%     85.13% # Class of executed instruction
system.cpu1.op_class::SimdAlu                     166      0.00%     85.13% # Class of executed instruction
system.cpu1.op_class::SimdCmp                      18      0.00%     85.13% # Class of executed instruction
system.cpu1.op_class::SimdCvt                     124      0.00%     85.13% # Class of executed instruction
system.cpu1.op_class::SimdMisc                  12597      0.00%     85.13% # Class of executed instruction
system.cpu1.op_class::SimdMult                      0      0.00%     85.13% # Class of executed instruction
system.cpu1.op_class::SimdMultAcc                   0      0.00%     85.13% # Class of executed instruction
system.cpu1.op_class::SimdShift                     0      0.00%     85.13% # Class of executed instruction
system.cpu1.op_class::SimdShiftAcc                  0      0.00%     85.13% # Class of executed instruction
system.cpu1.op_class::SimdDiv                       0      0.00%     85.13% # Class of executed instruction
system.cpu1.op_class::SimdSqrt                      0      0.00%     85.13% # Class of executed instruction
system.cpu1.op_class::SimdFloatAdd                  0      0.00%     85.13% # Class of executed instruction
system.cpu1.op_class::SimdFloatAlu                  0      0.00%     85.13% # Class of executed instruction
system.cpu1.op_class::SimdFloatCmp                  0      0.00%     85.13% # Class of executed instruction
system.cpu1.op_class::SimdFloatCvt                  0      0.00%     85.13% # Class of executed instruction
system.cpu1.op_class::SimdFloatDiv                  0      0.00%     85.13% # Class of executed instruction
system.cpu1.op_class::SimdFloatMisc                 0      0.00%     85.13% # Class of executed instruction
system.cpu1.op_class::SimdFloatMult                 0      0.00%     85.13% # Class of executed instruction
system.cpu1.op_class::SimdFloatMultAcc              0      0.00%     85.13% # Class of executed instruction
system.cpu1.op_class::SimdFloatSqrt                 0      0.00%     85.13% # Class of executed instruction
system.cpu1.op_class::SimdReduceAdd                 0      0.00%     85.13% # Class of executed instruction
system.cpu1.op_class::SimdReduceAlu                 0      0.00%     85.13% # Class of executed instruction
system.cpu1.op_class::SimdReduceCmp                 0      0.00%     85.13% # Class of executed instruction
system.cpu1.op_class::SimdFloatReduceAdd            0      0.00%     85.13% # Class of executed instruction
system.cpu1.op_class::SimdFloatReduceCmp            0      0.00%     85.13% # Class of executed instruction
system.cpu1.op_class::SimdAes                       0      0.00%     85.13% # Class of executed instruction
system.cpu1.op_class::SimdAesMix                    0      0.00%     85.13% # Class of executed instruction
system.cpu1.op_class::SimdSha1Hash                  0      0.00%     85.13% # Class of executed instruction
system.cpu1.op_class::SimdSha1Hash2                 0      0.00%     85.13% # Class of executed instruction
system.cpu1.op_class::SimdSha256Hash                0      0.00%     85.13% # Class of executed instruction
system.cpu1.op_class::SimdSha256Hash2               0      0.00%     85.13% # Class of executed instruction
system.cpu1.op_class::SimdShaSigma2                 0      0.00%     85.13% # Class of executed instruction
system.cpu1.op_class::SimdShaSigma3                 0      0.00%     85.13% # Class of executed instruction
system.cpu1.op_class::SimdPredAlu                   0      0.00%     85.13% # Class of executed instruction
system.cpu1.op_class::MemRead               149971074     10.20%     95.33% # Class of executed instruction
system.cpu1.op_class::MemWrite               63469681      4.32%     99.64% # Class of executed instruction
system.cpu1.op_class::FloatMemRead            2615905      0.18%     99.82% # Class of executed instruction
system.cpu1.op_class::FloatMemWrite           2622975      0.18%    100.00% # Class of executed instruction
system.cpu1.op_class::IprAccess                     0      0.00%    100.00% # Class of executed instruction
system.cpu1.op_class::InstPrefetch                  0      0.00%    100.00% # Class of executed instruction
system.cpu1.op_class::total                1470455023                       # Class of executed instruction
system.cpu1.workload.numSyscalls                   19                       # Number of system calls
system.membus.snoop_filter.hit_multi_requests            0                       # Number of requests hitting in the snoop filter with multiple (>1) holders of the requested data.
system.membus.snoop_filter.hit_multi_snoops            0                       # Number of snoops hitting in the snoop filter with multiple (>1) holders of the requested data.
system.membus.snoop_filter.hit_single_requests      6034677                       # Number of requests hitting in the snoop filter with a single holder of the requested data.
system.membus.snoop_filter.hit_single_snoops            0                       # Number of snoops hitting in the snoop filter with a single holder of the requested data.
system.membus.snoop_filter.tot_requests      12332424                       # Total number of requests made to the snoop filter.
system.membus.snoop_filter.tot_snoops               0                       # Total number of snoops made to the snoop filter.
system.tol2bus.snoop_filter.hit_multi_requests            0                       # Number of requests hitting in the snoop filter with multiple (>1) holders of the requested data.
system.tol2bus.snoop_filter.hit_multi_snoops            0                       # Number of snoops hitting in the snoop filter with multiple (>1) holders of the requested data.
system.tol2bus.snoop_filter.hit_single_requests     48789508                       # Number of requests hitting in the snoop filter with a single holder of the requested data.
system.tol2bus.snoop_filter.hit_single_snoops         1677                       # Number of snoops hitting in the snoop filter with a single holder of the requested data.
system.tol2bus.snoop_filter.tot_requests     97579958                       # Total number of requests made to the snoop filter.
system.tol2bus.snoop_filter.tot_snoops           1677                       # Total number of snoops made to the snoop filter.
system.membus.pwrStateResidencyTicks::UNDEFINED 1501644752100                       # Cumulative time (in ticks) in various power states
system.membus.trans_dist::ReadResp            5544527                       # Transaction distribution
system.membus.trans_dist::WritebackDirty       746027                       # Transaction distribution
system.membus.trans_dist::CleanEvict          5288650                       # Transaction distribution
system.membus.trans_dist::ReadExReq            753219                       # Transaction distribution
system.membus.trans_dist::ReadExResp           753219                       # Transaction distribution
system.membus.trans_dist::ReadSharedReq       5544528                       # Transaction distribution
system.membus.pkt_count_system.l2.mem_side::system.mem_ctrls.port     18630170                       # Packet count per connected master and slave (bytes)
system.membus.pkt_count_system.l2.mem_side::total     18630170                       # Packet count per connected master and slave (bytes)
system.membus.pkt_count::total               18630170                       # Packet count per connected master and slave (bytes)
system.membus.pkt_size_system.l2.mem_side::system.mem_ctrls.port    450801472                       # Cumulative packet size per connected master and slave (bytes)
system.membus.pkt_size_system.l2.mem_side::total    450801472                       # Cumulative packet size per connected master and slave (bytes)
system.membus.pkt_size::total               450801472                       # Cumulative packet size per connected master and slave (bytes)
system.membus.snoops                                0                       # Total snoops (count)
system.membus.snoopTraffic                          0                       # Total snoop traffic (bytes)
system.membus.snoop_fanout::samples           6297747                       # Request fanout histogram
system.membus.snoop_fanout::mean                    0                       # Request fanout histogram
system.membus.snoop_fanout::stdev                   0                       # Request fanout histogram
system.membus.snoop_fanout::underflows              0      0.00%      0.00% # Request fanout histogram
system.membus.snoop_fanout::0                 6297747    100.00%    100.00% # Request fanout histogram
system.membus.snoop_fanout::1                       0      0.00%    100.00% # Request fanout histogram
system.membus.snoop_fanout::overflows               0      0.00%    100.00% # Request fanout histogram
system.membus.snoop_fanout::min_value               0                       # Request fanout histogram
system.membus.snoop_fanout::max_value               0                       # Request fanout histogram
system.membus.snoop_fanout::total             6297747                       # Request fanout histogram
system.membus.reqLayer4.occupancy         23556067526                       # Layer occupancy (ticks)
system.membus.reqLayer4.utilization               1.6                       # Layer utilization (%)
system.membus.respLayer1.occupancy        33683931213                       # Layer occupancy (ticks)
system.membus.respLayer1.utilization              2.2                       # Layer utilization (%)
system.voltage_domain.voltage                       1                       # Voltage in Volts
system.clk_domain.clock                          1000                       # Clock period in ticks
system.cpu0.numPwrStateTransitions                  1                       # Number of power state transitions
system.cpu0.pwrStateResidencyTicks::ON   1501644752100                       # Cumulative time (in ticks) in various power states
system.cpu0.icache.pwrStateResidencyTicks::UNDEFINED 1501644752100                       # Cumulative time (in ticks) in various power states
system.cpu0.icache.demand_hits::.cpu0.inst   1002701626                       # number of demand (read+write) hits
system.cpu0.icache.demand_hits::total      1002701626                       # number of demand (read+write) hits
system.cpu0.icache.overall_hits::.cpu0.inst   1002701626                       # number of overall hits
system.cpu0.icache.overall_hits::total     1002701626                       # number of overall hits
system.cpu0.icache.demand_misses::.cpu0.inst          453                       # number of demand (read+write) misses
system.cpu0.icache.demand_misses::total           453                       # number of demand (read+write) misses
system.cpu0.icache.overall_misses::.cpu0.inst          453                       # number of overall misses
system.cpu0.icache.overall_misses::total          453                       # number of overall misses
system.cpu0.icache.demand_miss_latency::.cpu0.inst     39320307                       # number of demand (read+write) miss cycles
system.cpu0.icache.demand_miss_latency::total     39320307                       # number of demand (read+write) miss cycles
system.cpu0.icache.overall_miss_latency::.cpu0.inst     39320307                       # number of overall miss cycles
system.cpu0.icache.overall_miss_latency::total     39320307                       # number of overall miss cycles
system.cpu0.icache.demand_accesses::.cpu0.inst   1002702079                       # number of demand (read+write) accesses
system.cpu0.icache.demand_accesses::total   1002702079                       # number of demand (read+write) accesses
system.cpu0.icache.overall_accesses::.cpu0.inst   1002702079                       # number of overall (read+write) accesses
system.cpu0.icache.overall_accesses::total   1002702079                       # number of overall (read+write) accesses
system.cpu0.icache.demand_miss_rate::.cpu0.inst     0.000000                       # miss rate for demand accesses
system.cpu0.icache.demand_miss_rate::total     0.000000                       # miss rate for demand accesses
system.cpu0.icache.overall_miss_rate::.cpu0.inst     0.000000                       # miss rate for overall accesses
system.cpu0.icache.overall_miss_rate::total     0.000000                       # miss rate for overall accesses
system.cpu0.icache.demand_avg_miss_latency::.cpu0.inst 86799.794702                       # average overall miss latency
system.cpu0.icache.demand_avg_miss_latency::total 86799.794702                       # average overall miss latency
system.cpu0.icache.overall_avg_miss_latency::.cpu0.inst 86799.794702                       # average overall miss latency
system.cpu0.icache.overall_avg_miss_latency::total 86799.794702                       # average overall miss latency
system.cpu0.icache.blocked_cycles::no_mshrs            0                       # number of cycles access was blocked
system.cpu0.icache.blocked_cycles::no_targets            0                       # number of cycles access was blocked
system.cpu0.icache.blocked::no_mshrs                0                       # number of cycles access was blocked
system.cpu0.icache.blocked::no_targets              0                       # number of cycles access was blocked
system.cpu0.icache.avg_blocked_cycles::no_mshrs          nan                       # average number of cycles each access was blocked
system.cpu0.icache.avg_blocked_cycles::no_targets          nan                       # average number of cycles each access was blocked
system.cpu0.icache.writebacks::.writebacks           40                       # number of writebacks
system.cpu0.icache.writebacks::total               40                       # number of writebacks
system.cpu0.icache.demand_mshr_misses::.cpu0.inst          453                       # number of demand (read+write) MSHR misses
system.cpu0.icache.demand_mshr_misses::total          453                       # number of demand (read+write) MSHR misses
system.cpu0.icache.overall_mshr_misses::.cpu0.inst          453                       # number of overall MSHR misses
system.cpu0.icache.overall_mshr_misses::total          453                       # number of overall MSHR misses
system.cpu0.icache.demand_mshr_miss_latency::.cpu0.inst     39018609                       # number of demand (read+write) MSHR miss cycles
system.cpu0.icache.demand_mshr_miss_latency::total     39018609                       # number of demand (read+write) MSHR miss cycles
system.cpu0.icache.overall_mshr_miss_latency::.cpu0.inst     39018609                       # number of overall MSHR miss cycles
system.cpu0.icache.overall_mshr_miss_latency::total     39018609                       # number of overall MSHR miss cycles
system.cpu0.icache.demand_mshr_miss_rate::.cpu0.inst     0.000000                       # mshr miss rate for demand accesses
system.cpu0.icache.demand_mshr_miss_rate::total     0.000000                       # mshr miss rate for demand accesses
system.cpu0.icache.overall_mshr_miss_rate::.cpu0.inst     0.000000                       # mshr miss rate for overall accesses
system.cpu0.icache.overall_mshr_miss_rate::total     0.000000                       # mshr miss rate for overall accesses
system.cpu0.icache.demand_avg_mshr_miss_latency::.cpu0.inst 86133.794702                       # average overall mshr miss latency
system.cpu0.icache.demand_avg_mshr_miss_latency::total 86133.794702                       # average overall mshr miss latency
system.cpu0.icache.overall_avg_mshr_miss_latency::.cpu0.inst 86133.794702                       # average overall mshr miss latency
system.cpu0.icache.overall_avg_mshr_miss_latency::total 86133.794702                       # average overall mshr miss latency
system.cpu0.icache.replacements                    40                       # number of replacements
system.cpu0.icache.ReadReq_hits::.cpu0.inst   1002701626                       # number of ReadReq hits
system.cpu0.icache.ReadReq_hits::total     1002701626                       # number of ReadReq hits
system.cpu0.icache.ReadReq_misses::.cpu0.inst          453                       # number of ReadReq misses
system.cpu0.icache.ReadReq_misses::total          453                       # number of ReadReq misses
system.cpu0.icache.ReadReq_miss_latency::.cpu0.inst     39320307                       # number of ReadReq miss cycles
system.cpu0.icache.ReadReq_miss_latency::total     39320307                       # number of ReadReq miss cycles
system.cpu0.icache.ReadReq_accesses::.cpu0.inst   1002702079                       # number of ReadReq accesses(hits+misses)
system.cpu0.icache.ReadReq_accesses::total   1002702079                       # number of ReadReq accesses(hits+misses)
system.cpu0.icache.ReadReq_miss_rate::.cpu0.inst     0.000000                       # miss rate for ReadReq accesses
system.cpu0.icache.ReadReq_miss_rate::total     0.000000                       # miss rate for ReadReq accesses
system.cpu0.icache.ReadReq_avg_miss_latency::.cpu0.inst 86799.794702                       # average ReadReq miss latency
system.cpu0.icache.ReadReq_avg_miss_latency::total 86799.794702                       # average ReadReq miss latency
system.cpu0.icache.ReadReq_mshr_misses::.cpu0.inst          453                       # number of ReadReq MSHR misses
system.cpu0.icache.ReadReq_mshr_misses::total          453                       # number of ReadReq MSHR misses
system.cpu0.icache.ReadReq_mshr_miss_latency::.cpu0.inst     39018609                       # number of ReadReq MSHR miss cycles
system.cpu0.icache.ReadReq_mshr_miss_latency::total     39018609                       # number of ReadReq MSHR miss cycles
system.cpu0.icache.ReadReq_mshr_miss_rate::.cpu0.inst     0.000000                       # mshr miss rate for ReadReq accesses
system.cpu0.icache.ReadReq_mshr_miss_rate::total     0.000000                       # mshr miss rate for ReadReq accesses
system.cpu0.icache.ReadReq_avg_mshr_miss_latency::.cpu0.inst 86133.794702                       # average ReadReq mshr miss latency
system.cpu0.icache.ReadReq_avg_mshr_miss_latency::total 86133.794702                       # average ReadReq mshr miss latency
system.cpu0.icache.tags.pwrStateResidencyTicks::UNDEFINED 1501644752100                       # Cumulative time (in ticks) in various power states
system.cpu0.icache.tags.tagsinuse          409.308204                       # Cycle average of tags in use
system.cpu0.icache.tags.total_refs         1002702079                       # Total number of references to valid blocks.
system.cpu0.icache.tags.sampled_refs              453                       # Sample count of references to valid blocks.
system.cpu0.icache.tags.avg_refs         2213470.373068                       # Average number of references to valid blocks.
system.cpu0.icache.tags.warmup_cycle            83250                       # Cycle when the warmup percentage was hit.
system.cpu0.icache.tags.occ_blocks::.cpu0.inst   409.308204                       # Average occupied blocks per requestor
system.cpu0.icache.tags.occ_percent::.cpu0.inst     0.799430                       # Average percentage of cache occupancy
system.cpu0.icache.tags.occ_percent::total     0.799430                       # Average percentage of cache occupancy
system.cpu0.icache.tags.occ_task_id_blocks::1024          413                       # Occupied blocks per task id
system.cpu0.icache.tags.age_task_id_blocks_1024::4          413                       # Occupied blocks per task id
system.cpu0.icache.tags.occ_task_id_percent::1024     0.806641                       # Percentage of cache occupancy per task id
system.cpu0.icache.tags.tag_accesses       8021617085                       # Number of tag accesses
system.cpu0.icache.tags.data_accesses      8021617085                       # Number of data accesses
system.cpu0.icache.tags.repl_invalid                0                       # Number of initial replacements
system.cpu0.icache.tags.repl_valid_tag              0                       # Number of local replacements
system.cpu0.icache.tags.repl_valid_data             0                       # Number of global replacements
system.cpu0.dtb.walker.pwrStateResidencyTicks::UNDEFINED 1501644752100                       # Cumulative time (in ticks) in various power states
system.cpu0.interrupts.clk_domain.clock          5328                       # Clock period in ticks
system.cpu0.itb_walker_cache.pwrStateResidencyTicks::UNDEFINED 1501644752100                       # Cumulative time (in ticks) in various power states
system.cpu0.itb_walker_cache.blocked_cycles::no_mshrs            0                       # number of cycles access was blocked
system.cpu0.itb_walker_cache.blocked_cycles::no_targets            0                       # number of cycles access was blocked
system.cpu0.itb_walker_cache.blocked::no_mshrs            0                       # number of cycles access was blocked
system.cpu0.itb_walker_cache.blocked::no_targets            0                       # number of cycles access was blocked
system.cpu0.itb_walker_cache.avg_blocked_cycles::no_mshrs          nan                       # average number of cycles each access was blocked
system.cpu0.itb_walker_cache.avg_blocked_cycles::no_targets          nan                       # average number of cycles each access was blocked
system.cpu0.itb_walker_cache.replacements            0                       # number of replacements
system.cpu0.itb_walker_cache.tags.pwrStateResidencyTicks::UNDEFINED 1501644752100                       # Cumulative time (in ticks) in various power states
system.cpu0.itb_walker_cache.tags.tagsinuse            0                       # Cycle average of tags in use
system.cpu0.itb_walker_cache.tags.total_refs            0                       # Total number of references to valid blocks.
system.cpu0.itb_walker_cache.tags.sampled_refs            0                       # Sample count of references to valid blocks.
system.cpu0.itb_walker_cache.tags.avg_refs          nan                       # Average number of references to valid blocks.
system.cpu0.itb_walker_cache.tags.warmup_cycle            0                       # Cycle when the warmup percentage was hit.
system.cpu0.itb_walker_cache.tags.tag_accesses            0                       # Number of tag accesses
system.cpu0.itb_walker_cache.tags.data_accesses            0                       # Number of data accesses
system.cpu0.itb_walker_cache.tags.repl_invalid            0                       # Number of initial replacements
system.cpu0.itb_walker_cache.tags.repl_valid_tag            0                       # Number of local replacements
system.cpu0.itb_walker_cache.tags.repl_valid_data            0                       # Number of global replacements
system.cpu0.itb.walker.pwrStateResidencyTicks::UNDEFINED 1501644752100                       # Cumulative time (in ticks) in various power states
system.cpu0.dtb_walker_cache.pwrStateResidencyTicks::UNDEFINED 1501644752100                       # Cumulative time (in ticks) in various power states
system.cpu0.dtb_walker_cache.blocked_cycles::no_mshrs            0                       # number of cycles access was blocked
system.cpu0.dtb_walker_cache.blocked_cycles::no_targets            0                       # number of cycles access was blocked
system.cpu0.dtb_walker_cache.blocked::no_mshrs            0                       # number of cycles access was blocked
system.cpu0.dtb_walker_cache.blocked::no_targets            0                       # number of cycles access was blocked
system.cpu0.dtb_walker_cache.avg_blocked_cycles::no_mshrs          nan                       # average number of cycles each access was blocked
system.cpu0.dtb_walker_cache.avg_blocked_cycles::no_targets          nan                       # average number of cycles each access was blocked
system.cpu0.dtb_walker_cache.replacements            0                       # number of replacements
system.cpu0.dtb_walker_cache.tags.pwrStateResidencyTicks::UNDEFINED 1501644752100                       # Cumulative time (in ticks) in various power states
system.cpu0.dtb_walker_cache.tags.tagsinuse            0                       # Cycle average of tags in use
system.cpu0.dtb_walker_cache.tags.total_refs            0                       # Total number of references to valid blocks.
system.cpu0.dtb_walker_cache.tags.sampled_refs            0                       # Sample count of references to valid blocks.
system.cpu0.dtb_walker_cache.tags.avg_refs          nan                       # Average number of references to valid blocks.
system.cpu0.dtb_walker_cache.tags.warmup_cycle            0                       # Cycle when the warmup percentage was hit.
system.cpu0.dtb_walker_cache.tags.tag_accesses            0                       # Number of tag accesses
system.cpu0.dtb_walker_cache.tags.data_accesses            0                       # Number of data accesses
system.cpu0.dtb_walker_cache.tags.repl_invalid            0                       # Number of initial replacements
system.cpu0.dtb_walker_cache.tags.repl_valid_tag            0                       # Number of local replacements
system.cpu0.dtb_walker_cache.tags.repl_valid_data            0                       # Number of global replacements
system.cpu0.dcache.pwrStateResidencyTicks::UNDEFINED 1501644752100                       # Cumulative time (in ticks) in various power states
system.cpu0.dcache.demand_hits::.cpu0.data    453133295                       # number of demand (read+write) hits
system.cpu0.dcache.demand_hits::total       453133295                       # number of demand (read+write) hits
system.cpu0.dcache.overall_hits::.cpu0.data    453133295                       # number of overall hits
system.cpu0.dcache.overall_hits::total      453133295                       # number of overall hits
system.cpu0.dcache.demand_misses::.cpu0.data      9643800                       # number of demand (read+write) misses
system.cpu0.dcache.demand_misses::total       9643800                       # number of demand (read+write) misses
system.cpu0.dcache.overall_misses::.cpu0.data      9643800                       # number of overall misses
system.cpu0.dcache.overall_misses::total      9643800                       # number of overall misses
system.cpu0.dcache.demand_miss_latency::.cpu0.data 532019399049                       # number of demand (read+write) miss cycles
system.cpu0.dcache.demand_miss_latency::total 532019399049                       # number of demand (read+write) miss cycles
system.cpu0.dcache.overall_miss_latency::.cpu0.data 532019399049                       # number of overall miss cycles
system.cpu0.dcache.overall_miss_latency::total 532019399049                       # number of overall miss cycles
system.cpu0.dcache.demand_accesses::.cpu0.data    462777095                       # number of demand (read+write) accesses
system.cpu0.dcache.demand_accesses::total    462777095                       # number of demand (read+write) accesses
system.cpu0.dcache.overall_accesses::.cpu0.data    462777095                       # number of overall (read+write) accesses
system.cpu0.dcache.overall_accesses::total    462777095                       # number of overall (read+write) accesses
system.cpu0.dcache.demand_miss_rate::.cpu0.data     0.020839                       # miss rate for demand accesses
system.cpu0.dcache.demand_miss_rate::total     0.020839                       # miss rate for demand accesses
system.cpu0.dcache.overall_miss_rate::.cpu0.data     0.020839                       # miss rate for overall accesses
system.cpu0.dcache.overall_miss_rate::total     0.020839                       # miss rate for overall accesses
system.cpu0.dcache.demand_avg_miss_latency::.cpu0.data 55166.988018                       # average overall miss latency
system.cpu0.dcache.demand_avg_miss_latency::total 55166.988018                       # average overall miss latency
system.cpu0.dcache.overall_avg_miss_latency::.cpu0.data 55166.988018                       # average overall miss latency
system.cpu0.dcache.overall_avg_miss_latency::total 55166.988018                       # average overall miss latency
system.cpu0.dcache.blocked_cycles::no_mshrs            0                       # number of cycles access was blocked
system.cpu0.dcache.blocked_cycles::no_targets            0                       # number of cycles access was blocked
system.cpu0.dcache.blocked::no_mshrs                0                       # number of cycles access was blocked
system.cpu0.dcache.blocked::no_targets              0                       # number of cycles access was blocked
system.cpu0.dcache.avg_blocked_cycles::no_mshrs          nan                       # average number of cycles each access was blocked
system.cpu0.dcache.avg_blocked_cycles::no_targets          nan                       # average number of cycles each access was blocked
system.cpu0.dcache.writebacks::.writebacks         1738                       # number of writebacks
system.cpu0.dcache.writebacks::total             1738                       # number of writebacks
system.cpu0.dcache.demand_mshr_misses::.cpu0.data      9643800                       # number of demand (read+write) MSHR misses
system.cpu0.dcache.demand_mshr_misses::total      9643800                       # number of demand (read+write) MSHR misses
system.cpu0.dcache.overall_mshr_misses::.cpu0.data      9643800                       # number of overall MSHR misses
system.cpu0.dcache.overall_mshr_misses::total      9643800                       # number of overall MSHR misses
system.cpu0.dcache.demand_mshr_miss_latency::.cpu0.data 525596628915                       # number of demand (read+write) MSHR miss cycles
system.cpu0.dcache.demand_mshr_miss_latency::total 525596628915                       # number of demand (read+write) MSHR miss cycles
system.cpu0.dcache.overall_mshr_miss_latency::.cpu0.data 525596628915                       # number of overall MSHR miss cycles
system.cpu0.dcache.overall_mshr_miss_latency::total 525596628915                       # number of overall MSHR miss cycles
system.cpu0.dcache.demand_mshr_miss_rate::.cpu0.data     0.020839                       # mshr miss rate for demand accesses
system.cpu0.dcache.demand_mshr_miss_rate::total     0.020839                       # mshr miss rate for demand accesses
system.cpu0.dcache.overall_mshr_miss_rate::.cpu0.data     0.020839                       # mshr miss rate for overall accesses
system.cpu0.dcache.overall_mshr_miss_rate::total     0.020839                       # mshr miss rate for overall accesses
system.cpu0.dcache.demand_avg_mshr_miss_latency::.cpu0.data 54500.988087                       # average overall mshr miss latency
system.cpu0.dcache.demand_avg_mshr_miss_latency::total 54500.988087                       # average overall mshr miss latency
system.cpu0.dcache.overall_avg_mshr_miss_latency::.cpu0.data 54500.988087                       # average overall mshr miss latency
system.cpu0.dcache.overall_avg_mshr_miss_latency::total 54500.988087                       # average overall mshr miss latency
system.cpu0.dcache.replacements               9643791                       # number of replacements
system.cpu0.dcache.ReadReq_hits::.cpu0.data    298874160                       # number of ReadReq hits
system.cpu0.dcache.ReadReq_hits::total      298874160                       # number of ReadReq hits
system.cpu0.dcache.ReadReq_misses::.cpu0.data      9642913                       # number of ReadReq misses
system.cpu0.dcache.ReadReq_misses::total      9642913                       # number of ReadReq misses
system.cpu0.dcache.ReadReq_miss_latency::.cpu0.data 531982949868                       # number of ReadReq miss cycles
system.cpu0.dcache.ReadReq_miss_latency::total 531982949868                       # number of ReadReq miss cycles
system.cpu0.dcache.ReadReq_accesses::.cpu0.data    308517073                       # number of ReadReq accesses(hits+misses)
system.cpu0.dcache.ReadReq_accesses::total    308517073                       # number of ReadReq accesses(hits+misses)
system.cpu0.dcache.ReadReq_miss_rate::.cpu0.data     0.031256                       # miss rate for ReadReq accesses
system.cpu0.dcache.ReadReq_miss_rate::total     0.031256                       # miss rate for ReadReq accesses
system.cpu0.dcache.ReadReq_avg_miss_latency::.cpu0.data 55168.282641                       # average ReadReq miss latency
system.cpu0.dcache.ReadReq_avg_miss_latency::total 55168.282641                       # average ReadReq miss latency
system.cpu0.dcache.ReadReq_mshr_misses::.cpu0.data      9642913                       # number of ReadReq MSHR misses
system.cpu0.dcache.ReadReq_mshr_misses::total      9642913                       # number of ReadReq MSHR misses
system.cpu0.dcache.ReadReq_mshr_miss_latency::.cpu0.data 525560770476                       # number of ReadReq MSHR miss cycles
system.cpu0.dcache.ReadReq_mshr_miss_latency::total 525560770476                       # number of ReadReq MSHR miss cycles
system.cpu0.dcache.ReadReq_mshr_miss_rate::.cpu0.data     0.031256                       # mshr miss rate for ReadReq accesses
system.cpu0.dcache.ReadReq_mshr_miss_rate::total     0.031256                       # mshr miss rate for ReadReq accesses
system.cpu0.dcache.ReadReq_avg_mshr_miss_latency::.cpu0.data 54502.282710                       # average ReadReq mshr miss latency
system.cpu0.dcache.ReadReq_avg_mshr_miss_latency::total 54502.282710                       # average ReadReq mshr miss latency
system.cpu0.dcache.WriteReq_hits::.cpu0.data    154259135                       # number of WriteReq hits
system.cpu0.dcache.WriteReq_hits::total     154259135                       # number of WriteReq hits
system.cpu0.dcache.WriteReq_misses::.cpu0.data          887                       # number of WriteReq misses
system.cpu0.dcache.WriteReq_misses::total          887                       # number of WriteReq misses
system.cpu0.dcache.WriteReq_miss_latency::.cpu0.data     36449181                       # number of WriteReq miss cycles
system.cpu0.dcache.WriteReq_miss_latency::total     36449181                       # number of WriteReq miss cycles
system.cpu0.dcache.WriteReq_accesses::.cpu0.data    154260022                       # number of WriteReq accesses(hits+misses)
system.cpu0.dcache.WriteReq_accesses::total    154260022                       # number of WriteReq accesses(hits+misses)
system.cpu0.dcache.WriteReq_miss_rate::.cpu0.data     0.000006                       # miss rate for WriteReq accesses
system.cpu0.dcache.WriteReq_miss_rate::total     0.000006                       # miss rate for WriteReq accesses
system.cpu0.dcache.WriteReq_avg_miss_latency::.cpu0.data 41092.650507                       # average WriteReq miss latency
system.cpu0.dcache.WriteReq_avg_miss_latency::total 41092.650507                       # average WriteReq miss latency
system.cpu0.dcache.WriteReq_mshr_misses::.cpu0.data          887                       # number of WriteReq MSHR misses
system.cpu0.dcache.WriteReq_mshr_misses::total          887                       # number of WriteReq MSHR misses
system.cpu0.dcache.WriteReq_mshr_miss_latency::.cpu0.data     35858439                       # number of WriteReq MSHR miss cycles
system.cpu0.dcache.WriteReq_mshr_miss_latency::total     35858439                       # number of WriteReq MSHR miss cycles
system.cpu0.dcache.WriteReq_mshr_miss_rate::.cpu0.data     0.000006                       # mshr miss rate for WriteReq accesses
system.cpu0.dcache.WriteReq_mshr_miss_rate::total     0.000006                       # mshr miss rate for WriteReq accesses
system.cpu0.dcache.WriteReq_avg_mshr_miss_latency::.cpu0.data 40426.650507                       # average WriteReq mshr miss latency
system.cpu0.dcache.WriteReq_avg_mshr_miss_latency::total 40426.650507                       # average WriteReq mshr miss latency
system.cpu0.dcache.tags.pwrStateResidencyTicks::UNDEFINED 1501644752100                       # Cumulative time (in ticks) in various power states
system.cpu0.dcache.tags.tagsinuse            7.999996                       # Cycle average of tags in use
system.cpu0.dcache.tags.total_refs          462777094                       # Total number of references to valid blocks.
system.cpu0.dcache.tags.sampled_refs          9643799                       # Sample count of references to valid blocks.
system.cpu0.dcache.tags.avg_refs            47.987012                       # Average number of references to valid blocks.
system.cpu0.dcache.tags.warmup_cycle           166167                       # Cycle when the warmup percentage was hit.
system.cpu0.dcache.tags.occ_blocks::.cpu0.data     7.999996                       # Average occupied blocks per requestor
system.cpu0.dcache.tags.occ_percent::.cpu0.data     1.000000                       # Average percentage of cache occupancy
system.cpu0.dcache.tags.occ_percent::total     1.000000                       # Average percentage of cache occupancy
system.cpu0.dcache.tags.occ_task_id_blocks::1024            8                       # Occupied blocks per task id
system.cpu0.dcache.tags.age_task_id_blocks_1024::0            7                       # Occupied blocks per task id
system.cpu0.dcache.tags.age_task_id_blocks_1024::4            1                       # Occupied blocks per task id
system.cpu0.dcache.tags.occ_task_id_percent::1024            1                       # Percentage of cache occupancy per task id
system.cpu0.dcache.tags.tag_accesses       3711860559                       # Number of tag accesses
system.cpu0.dcache.tags.data_accesses      3711860559                       # Number of data accesses
system.cpu0.dcache.tags.repl_invalid                0                       # Number of initial replacements
system.cpu0.dcache.tags.repl_valid_tag              0                       # Number of local replacements
system.cpu0.dcache.tags.repl_valid_data             0                       # Number of global replacements
system.cpu1.numPwrStateTransitions                  1                       # Number of power state transitions
system.cpu1.pwrStateResidencyTicks::ON   1501644752100                       # Cumulative time (in ticks) in various power states
system.cpu1.icache.pwrStateResidencyTicks::UNDEFINED 1501644752100                       # Cumulative time (in ticks) in various power states
system.cpu1.icache.demand_hits::.cpu1.inst   1315785242                       # number of demand (read+write) hits
system.cpu1.icache.demand_hits::total      1315785242                       # number of demand (read+write) hits
system.cpu1.icache.overall_hits::.cpu1.inst   1315785242                       # number of overall hits
system.cpu1.icache.overall_hits::total     1315785242                       # number of overall hits
system.cpu1.icache.demand_misses::.cpu1.inst          956                       # number of demand (read+write) misses
system.cpu1.icache.demand_misses::total           956                       # number of demand (read+write) misses
system.cpu1.icache.overall_misses::.cpu1.inst          956                       # number of overall misses
system.cpu1.icache.overall_misses::total          956                       # number of overall misses
system.cpu1.icache.demand_miss_latency::.cpu1.inst     96446124                       # number of demand (read+write) miss cycles
system.cpu1.icache.demand_miss_latency::total     96446124                       # number of demand (read+write) miss cycles
system.cpu1.icache.overall_miss_latency::.cpu1.inst     96446124                       # number of overall miss cycles
system.cpu1.icache.overall_miss_latency::total     96446124                       # number of overall miss cycles
system.cpu1.icache.demand_accesses::.cpu1.inst   1315786198                       # number of demand (read+write) accesses
system.cpu1.icache.demand_accesses::total   1315786198                       # number of demand (read+write) accesses
system.cpu1.icache.overall_accesses::.cpu1.inst   1315786198                       # number of overall (read+write) accesses
system.cpu1.icache.overall_accesses::total   1315786198                       # number of overall (read+write) accesses
system.cpu1.icache.demand_miss_rate::.cpu1.inst     0.000001                       # miss rate for demand accesses
system.cpu1.icache.demand_miss_rate::total     0.000001                       # miss rate for demand accesses
system.cpu1.icache.overall_miss_rate::.cpu1.inst     0.000001                       # miss rate for overall accesses
system.cpu1.icache.overall_miss_rate::total     0.000001                       # miss rate for overall accesses
system.cpu1.icache.demand_avg_miss_latency::.cpu1.inst 100885.066946                       # average overall miss latency
system.cpu1.icache.demand_avg_miss_latency::total 100885.066946                       # average overall miss latency
system.cpu1.icache.overall_avg_miss_latency::.cpu1.inst 100885.066946                       # average overall miss latency
system.cpu1.icache.overall_avg_miss_latency::total 100885.066946                       # average overall miss latency
system.cpu1.icache.blocked_cycles::no_mshrs            0                       # number of cycles access was blocked
system.cpu1.icache.blocked_cycles::no_targets            0                       # number of cycles access was blocked
system.cpu1.icache.blocked::no_mshrs                0                       # number of cycles access was blocked
system.cpu1.icache.blocked::no_targets              0                       # number of cycles access was blocked
system.cpu1.icache.avg_blocked_cycles::no_mshrs          nan                       # average number of cycles each access was blocked
system.cpu1.icache.avg_blocked_cycles::no_targets          nan                       # average number of cycles each access was blocked
system.cpu1.icache.writebacks::.writebacks          444                       # number of writebacks
system.cpu1.icache.writebacks::total              444                       # number of writebacks
system.cpu1.icache.demand_mshr_misses::.cpu1.inst          956                       # number of demand (read+write) MSHR misses
system.cpu1.icache.demand_mshr_misses::total          956                       # number of demand (read+write) MSHR misses
system.cpu1.icache.overall_mshr_misses::.cpu1.inst          956                       # number of overall MSHR misses
system.cpu1.icache.overall_mshr_misses::total          956                       # number of overall MSHR misses
system.cpu1.icache.demand_mshr_miss_latency::.cpu1.inst     95809428                       # number of demand (read+write) MSHR miss cycles
system.cpu1.icache.demand_mshr_miss_latency::total     95809428                       # number of demand (read+write) MSHR miss cycles
system.cpu1.icache.overall_mshr_miss_latency::.cpu1.inst     95809428                       # number of overall MSHR miss cycles
system.cpu1.icache.overall_mshr_miss_latency::total     95809428                       # number of overall MSHR miss cycles
system.cpu1.icache.demand_mshr_miss_rate::.cpu1.inst     0.000001                       # mshr miss rate for demand accesses
system.cpu1.icache.demand_mshr_miss_rate::total     0.000001                       # mshr miss rate for demand accesses
system.cpu1.icache.overall_mshr_miss_rate::.cpu1.inst     0.000001                       # mshr miss rate for overall accesses
system.cpu1.icache.overall_mshr_miss_rate::total     0.000001                       # mshr miss rate for overall accesses
system.cpu1.icache.demand_avg_mshr_miss_latency::.cpu1.inst 100219.066946                       # average overall mshr miss latency
system.cpu1.icache.demand_avg_mshr_miss_latency::total 100219.066946                       # average overall mshr miss latency
system.cpu1.icache.overall_avg_mshr_miss_latency::.cpu1.inst 100219.066946                       # average overall mshr miss latency
system.cpu1.icache.overall_avg_mshr_miss_latency::total 100219.066946                       # average overall mshr miss latency
system.cpu1.icache.replacements                   444                       # number of replacements
system.cpu1.icache.ReadReq_hits::.cpu1.inst   1315785242                       # number of ReadReq hits
system.cpu1.icache.ReadReq_hits::total     1315785242                       # number of ReadReq hits
system.cpu1.icache.ReadReq_misses::.cpu1.inst          956                       # number of ReadReq misses
system.cpu1.icache.ReadReq_misses::total          956                       # number of ReadReq misses
system.cpu1.icache.ReadReq_miss_latency::.cpu1.inst     96446124                       # number of ReadReq miss cycles
system.cpu1.icache.ReadReq_miss_latency::total     96446124                       # number of ReadReq miss cycles
system.cpu1.icache.ReadReq_accesses::.cpu1.inst   1315786198                       # number of ReadReq accesses(hits+misses)
system.cpu1.icache.ReadReq_accesses::total   1315786198                       # number of ReadReq accesses(hits+misses)
system.cpu1.icache.ReadReq_miss_rate::.cpu1.inst     0.000001                       # miss rate for ReadReq accesses
system.cpu1.icache.ReadReq_miss_rate::total     0.000001                       # miss rate for ReadReq accesses
system.cpu1.icache.ReadReq_avg_miss_latency::.cpu1.inst 100885.066946                       # average ReadReq miss latency
system.cpu1.icache.ReadReq_avg_miss_latency::total 100885.066946                       # average ReadReq miss latency
system.cpu1.icache.ReadReq_mshr_misses::.cpu1.inst          956                       # number of ReadReq MSHR misses
system.cpu1.icache.ReadReq_mshr_misses::total          956                       # number of ReadReq MSHR misses
system.cpu1.icache.ReadReq_mshr_miss_latency::.cpu1.inst     95809428                       # number of ReadReq MSHR miss cycles
system.cpu1.icache.ReadReq_mshr_miss_latency::total     95809428                       # number of ReadReq MSHR miss cycles
system.cpu1.icache.ReadReq_mshr_miss_rate::.cpu1.inst     0.000001                       # mshr miss rate for ReadReq accesses
system.cpu1.icache.ReadReq_mshr_miss_rate::total     0.000001                       # mshr miss rate for ReadReq accesses
system.cpu1.icache.ReadReq_avg_mshr_miss_latency::.cpu1.inst 100219.066946                       # average ReadReq mshr miss latency
system.cpu1.icache.ReadReq_avg_mshr_miss_latency::total 100219.066946                       # average ReadReq mshr miss latency
system.cpu1.icache.tags.pwrStateResidencyTicks::UNDEFINED 1501644752100                       # Cumulative time (in ticks) in various power states
system.cpu1.icache.tags.tagsinuse          509.713529                       # Cycle average of tags in use
system.cpu1.icache.tags.total_refs         1315786198                       # Total number of references to valid blocks.
system.cpu1.icache.tags.sampled_refs              956                       # Sample count of references to valid blocks.
system.cpu1.icache.tags.avg_refs         1376345.395397                       # Average number of references to valid blocks.
system.cpu1.icache.tags.warmup_cycle            88245                       # Cycle when the warmup percentage was hit.
system.cpu1.icache.tags.occ_blocks::.cpu1.inst   509.713529                       # Average occupied blocks per requestor
system.cpu1.icache.tags.occ_percent::.cpu1.inst     0.995534                       # Average percentage of cache occupancy
system.cpu1.icache.tags.occ_percent::total     0.995534                       # Average percentage of cache occupancy
system.cpu1.icache.tags.occ_task_id_blocks::1024          512                       # Occupied blocks per task id
system.cpu1.icache.tags.age_task_id_blocks_1024::4          512                       # Occupied blocks per task id
system.cpu1.icache.tags.occ_task_id_percent::1024            1                       # Percentage of cache occupancy per task id
system.cpu1.icache.tags.tag_accesses      10526290540                       # Number of tag accesses
system.cpu1.icache.tags.data_accesses     10526290540                       # Number of data accesses
system.cpu1.icache.tags.repl_invalid                0                       # Number of initial replacements
system.cpu1.icache.tags.repl_valid_tag              0                       # Number of local replacements
system.cpu1.icache.tags.repl_valid_data             0                       # Number of global replacements
system.cpu1.dtb.walker.pwrStateResidencyTicks::UNDEFINED 1501644752100                       # Cumulative time (in ticks) in various power states
system.cpu1.interrupts.clk_domain.clock          5328                       # Clock period in ticks
system.cpu1.itb_walker_cache.pwrStateResidencyTicks::UNDEFINED 1501644752100                       # Cumulative time (in ticks) in various power states
system.cpu1.itb_walker_cache.blocked_cycles::no_mshrs            0                       # number of cycles access was blocked
system.cpu1.itb_walker_cache.blocked_cycles::no_targets            0                       # number of cycles access was blocked
system.cpu1.itb_walker_cache.blocked::no_mshrs            0                       # number of cycles access was blocked
system.cpu1.itb_walker_cache.blocked::no_targets            0                       # number of cycles access was blocked
system.cpu1.itb_walker_cache.avg_blocked_cycles::no_mshrs          nan                       # average number of cycles each access was blocked
system.cpu1.itb_walker_cache.avg_blocked_cycles::no_targets          nan                       # average number of cycles each access was blocked
system.cpu1.itb_walker_cache.replacements            0                       # number of replacements
system.cpu1.itb_walker_cache.tags.pwrStateResidencyTicks::UNDEFINED 1501644752100                       # Cumulative time (in ticks) in various power states
system.cpu1.itb_walker_cache.tags.tagsinuse            0                       # Cycle average of tags in use
system.cpu1.itb_walker_cache.tags.total_refs            0                       # Total number of references to valid blocks.
system.cpu1.itb_walker_cache.tags.sampled_refs            0                       # Sample count of references to valid blocks.
system.cpu1.itb_walker_cache.tags.avg_refs          nan                       # Average number of references to valid blocks.
system.cpu1.itb_walker_cache.tags.warmup_cycle            0                       # Cycle when the warmup percentage was hit.
system.cpu1.itb_walker_cache.tags.tag_accesses            0                       # Number of tag accesses
system.cpu1.itb_walker_cache.tags.data_accesses            0                       # Number of data accesses
system.cpu1.itb_walker_cache.tags.repl_invalid            0                       # Number of initial replacements
system.cpu1.itb_walker_cache.tags.repl_valid_tag            0                       # Number of local replacements
system.cpu1.itb_walker_cache.tags.repl_valid_data            0                       # Number of global replacements
system.cpu1.itb.walker.pwrStateResidencyTicks::UNDEFINED 1501644752100                       # Cumulative time (in ticks) in various power states
system.cpu1.dtb_walker_cache.pwrStateResidencyTicks::UNDEFINED 1501644752100                       # Cumulative time (in ticks) in various power states
system.cpu1.dtb_walker_cache.blocked_cycles::no_mshrs            0                       # number of cycles access was blocked
system.cpu1.dtb_walker_cache.blocked_cycles::no_targets            0                       # number of cycles access was blocked
system.cpu1.dtb_walker_cache.blocked::no_mshrs            0                       # number of cycles access was blocked
system.cpu1.dtb_walker_cache.blocked::no_targets            0                       # number of cycles access was blocked
system.cpu1.dtb_walker_cache.avg_blocked_cycles::no_mshrs          nan                       # average number of cycles each access was blocked
system.cpu1.dtb_walker_cache.avg_blocked_cycles::no_targets          nan                       # average number of cycles each access was blocked
system.cpu1.dtb_walker_cache.replacements            0                       # number of replacements
system.cpu1.dtb_walker_cache.tags.pwrStateResidencyTicks::UNDEFINED 1501644752100                       # Cumulative time (in ticks) in various power states
system.cpu1.dtb_walker_cache.tags.tagsinuse            0                       # Cycle average of tags in use
system.cpu1.dtb_walker_cache.tags.total_refs            0                       # Total number of references to valid blocks.
system.cpu1.dtb_walker_cache.tags.sampled_refs            0                       # Sample count of references to valid blocks.
system.cpu1.dtb_walker_cache.tags.avg_refs          nan                       # Average number of references to valid blocks.
system.cpu1.dtb_walker_cache.tags.warmup_cycle            0                       # Cycle when the warmup percentage was hit.
system.cpu1.dtb_walker_cache.tags.tag_accesses            0                       # Number of tag accesses
system.cpu1.dtb_walker_cache.tags.data_accesses            0                       # Number of data accesses
system.cpu1.dtb_walker_cache.tags.repl_invalid            0                       # Number of initial replacements
system.cpu1.dtb_walker_cache.tags.repl_valid_tag            0                       # Number of local replacements
system.cpu1.dtb_walker_cache.tags.repl_valid_data            0                       # Number of global replacements
system.cpu1.dcache.pwrStateResidencyTicks::UNDEFINED 1501644752100                       # Cumulative time (in ticks) in various power states
system.cpu1.dcache.demand_hits::.cpu1.data    179685642                       # number of demand (read+write) hits
system.cpu1.dcache.demand_hits::total       179685642                       # number of demand (read+write) hits
system.cpu1.dcache.overall_hits::.cpu1.data    179685642                       # number of overall hits
system.cpu1.dcache.overall_hits::total      179685642                       # number of overall hits
system.cpu1.dcache.demand_misses::.cpu1.data     39145241                       # number of demand (read+write) misses
system.cpu1.dcache.demand_misses::total      39145241                       # number of demand (read+write) misses
system.cpu1.dcache.overall_misses::.cpu1.data     39145241                       # number of overall misses
system.cpu1.dcache.overall_misses::total     39145241                       # number of overall misses
system.cpu1.dcache.demand_miss_latency::.cpu1.data 506506669317                       # number of demand (read+write) miss cycles
system.cpu1.dcache.demand_miss_latency::total 506506669317                       # number of demand (read+write) miss cycles
system.cpu1.dcache.overall_miss_latency::.cpu1.data 506506669317                       # number of overall miss cycles
system.cpu1.dcache.overall_miss_latency::total 506506669317                       # number of overall miss cycles
system.cpu1.dcache.demand_accesses::.cpu1.data    218830883                       # number of demand (read+write) accesses
system.cpu1.dcache.demand_accesses::total    218830883                       # number of demand (read+write) accesses
system.cpu1.dcache.overall_accesses::.cpu1.data    218830883                       # number of overall (read+write) accesses
system.cpu1.dcache.overall_accesses::total    218830883                       # number of overall (read+write) accesses
system.cpu1.dcache.demand_miss_rate::.cpu1.data     0.178884                       # miss rate for demand accesses
system.cpu1.dcache.demand_miss_rate::total     0.178884                       # miss rate for demand accesses
system.cpu1.dcache.overall_miss_rate::.cpu1.data     0.178884                       # miss rate for overall accesses
system.cpu1.dcache.overall_miss_rate::total     0.178884                       # miss rate for overall accesses
system.cpu1.dcache.demand_avg_miss_latency::.cpu1.data 12939.163392                       # average overall miss latency
system.cpu1.dcache.demand_avg_miss_latency::total 12939.163392                       # average overall miss latency
system.cpu1.dcache.overall_avg_miss_latency::.cpu1.data 12939.163392                       # average overall miss latency
system.cpu1.dcache.overall_avg_miss_latency::total 12939.163392                       # average overall miss latency
system.cpu1.dcache.blocked_cycles::no_mshrs            0                       # number of cycles access was blocked
system.cpu1.dcache.blocked_cycles::no_targets            0                       # number of cycles access was blocked
system.cpu1.dcache.blocked::no_mshrs                0                       # number of cycles access was blocked
system.cpu1.dcache.blocked::no_targets              0                       # number of cycles access was blocked
system.cpu1.dcache.avg_blocked_cycles::no_mshrs          nan                       # average number of cycles each access was blocked
system.cpu1.dcache.avg_blocked_cycles::no_targets          nan                       # average number of cycles each access was blocked
system.cpu1.dcache.writebacks::.writebacks     28057044                       # number of writebacks
system.cpu1.dcache.writebacks::total         28057044                       # number of writebacks
system.cpu1.dcache.demand_mshr_misses::.cpu1.data     39145241                       # number of demand (read+write) MSHR misses
system.cpu1.dcache.demand_mshr_misses::total     39145241                       # number of demand (read+write) MSHR misses
system.cpu1.dcache.overall_mshr_misses::.cpu1.data     39145241                       # number of overall MSHR misses
system.cpu1.dcache.overall_mshr_misses::total     39145241                       # number of overall MSHR misses
system.cpu1.dcache.demand_mshr_miss_latency::.cpu1.data 480435938811                       # number of demand (read+write) MSHR miss cycles
system.cpu1.dcache.demand_mshr_miss_latency::total 480435938811                       # number of demand (read+write) MSHR miss cycles
system.cpu1.dcache.overall_mshr_miss_latency::.cpu1.data 480435938811                       # number of overall MSHR miss cycles
system.cpu1.dcache.overall_mshr_miss_latency::total 480435938811                       # number of overall MSHR miss cycles
system.cpu1.dcache.demand_mshr_miss_rate::.cpu1.data     0.178884                       # mshr miss rate for demand accesses
system.cpu1.dcache.demand_mshr_miss_rate::total     0.178884                       # mshr miss rate for demand accesses
system.cpu1.dcache.overall_mshr_miss_rate::.cpu1.data     0.178884                       # mshr miss rate for overall accesses
system.cpu1.dcache.overall_mshr_miss_rate::total     0.178884                       # mshr miss rate for overall accesses
system.cpu1.dcache.demand_avg_mshr_miss_latency::.cpu1.data 12273.163392                       # average overall mshr miss latency
system.cpu1.dcache.demand_avg_mshr_miss_latency::total 12273.163392                       # average overall mshr miss latency
system.cpu1.dcache.overall_avg_mshr_miss_latency::.cpu1.data 12273.163392                       # average overall mshr miss latency
system.cpu1.dcache.overall_avg_mshr_miss_latency::total 12273.163392                       # average overall mshr miss latency
system.cpu1.dcache.replacements              39145233                       # number of replacements
system.cpu1.dcache.ReadReq_hits::.cpu1.data    117379753                       # number of ReadReq hits
system.cpu1.dcache.ReadReq_hits::total      117379753                       # number of ReadReq hits
system.cpu1.dcache.ReadReq_misses::.cpu1.data     35283459                       # number of ReadReq misses
system.cpu1.dcache.ReadReq_misses::total     35283459                       # number of ReadReq misses
system.cpu1.dcache.ReadReq_miss_latency::.cpu1.data 397455027786                       # number of ReadReq miss cycles
system.cpu1.dcache.ReadReq_miss_latency::total 397455027786                       # number of ReadReq miss cycles
system.cpu1.dcache.ReadReq_accesses::.cpu1.data    152663212                       # number of ReadReq accesses(hits+misses)
system.cpu1.dcache.ReadReq_accesses::total    152663212                       # number of ReadReq accesses(hits+misses)
system.cpu1.dcache.ReadReq_miss_rate::.cpu1.data     0.231120                       # miss rate for ReadReq accesses
system.cpu1.dcache.ReadReq_miss_rate::total     0.231120                       # miss rate for ReadReq accesses
system.cpu1.dcache.ReadReq_avg_miss_latency::.cpu1.data 11264.627648                       # average ReadReq miss latency
system.cpu1.dcache.ReadReq_avg_miss_latency::total 11264.627648                       # average ReadReq miss latency
system.cpu1.dcache.ReadReq_mshr_misses::.cpu1.data     35283459                       # number of ReadReq MSHR misses
system.cpu1.dcache.ReadReq_mshr_misses::total     35283459                       # number of ReadReq MSHR misses
system.cpu1.dcache.ReadReq_mshr_miss_latency::.cpu1.data 373956244092                       # number of ReadReq MSHR miss cycles
system.cpu1.dcache.ReadReq_mshr_miss_latency::total 373956244092                       # number of ReadReq MSHR miss cycles
system.cpu1.dcache.ReadReq_mshr_miss_rate::.cpu1.data     0.231120                       # mshr miss rate for ReadReq accesses
system.cpu1.dcache.ReadReq_mshr_miss_rate::total     0.231120                       # mshr miss rate for ReadReq accesses
system.cpu1.dcache.ReadReq_avg_mshr_miss_latency::.cpu1.data 10598.627648                       # average ReadReq mshr miss latency
system.cpu1.dcache.ReadReq_avg_mshr_miss_latency::total 10598.627648                       # average ReadReq mshr miss latency
system.cpu1.dcache.WriteReq_hits::.cpu1.data     62305889                       # number of WriteReq hits
system.cpu1.dcache.WriteReq_hits::total      62305889                       # number of WriteReq hits
system.cpu1.dcache.WriteReq_misses::.cpu1.data      3861782                       # number of WriteReq misses
[...]
system.mem_ctrls.wrQLenPdf::112                     0                       # What write queue length does an incoming req see
system.mem_ctrls.wrQLenPdf::113                     0                       # What write queue length does an incoming req see
system.mem_ctrls.wrQLenPdf::114                     0                       # What write queue length does an incoming req see
system.mem_ctrls.wrQLenPdf::115                     0                       # What write queue length does an incoming req see
system.mem_ctrls.wrQLenPdf::116                     0                       # What write queue length does an incoming req see
system.mem_ctrls.wrQLenPdf::117                     0                       # What write queue length does an incoming req see
system.mem_ctrls.wrQLenPdf::118                     0                       # What write queue length does an incoming req see
system.mem_ctrls.wrQLenPdf::119                     0                       # What write queue length does an incoming req see
system.mem_ctrls.wrQLenPdf::120                     0                       # What write queue length does an incoming req see
system.mem_ctrls.wrQLenPdf::121                     0                       # What write queue length does an incoming req see
system.mem_ctrls.wrQLenPdf::122                     0                       # What write queue length does an incoming req see
system.mem_ctrls.wrQLenPdf::123                     0                       # What write queue length does an incoming req see
system.mem_ctrls.wrQLenPdf::124                     0                       # What write queue length does an incoming req see
system.mem_ctrls.wrQLenPdf::125                     0                       # What write queue length does an incoming req see
system.mem_ctrls.wrQLenPdf::126                     0                       # What write queue length does an incoming req see
system.mem_ctrls.wrQLenPdf::127                     0                       # What write queue length does an incoming req see
system.mem_ctrls.bytesPerActivate::samples      7040766                       # Bytes accessed per row activation
system.mem_ctrls.bytesPerActivate::mean            64                       # Bytes accessed per row activation
system.mem_ctrls.bytesPerActivate::gmean    64.000000                       # Bytes accessed per row activation
system.mem_ctrls.bytesPerActivate::64-71      7040766    100.00%    100.00% # Bytes accessed per row activation
system.mem_ctrls.bytesPerActivate::total      7040766                       # Bytes accessed per row activation
system.mem_ctrls.rdPerTurnAround::samples        45192                       # Reads before turning the bus around for writes
system.mem_ctrls.rdPerTurnAround::mean     139.289786                       # Reads before turning the bus around for writes
system.mem_ctrls.rdPerTurnAround::gmean     62.577687                       # Reads before turning the bus around for writes
system.mem_ctrls.rdPerTurnAround::stdev    842.315557                       # Reads before turning the bus around for writes
system.mem_ctrls.rdPerTurnAround::0-4095        45191    100.00%    100.00% # Reads before turning the bus around for writes
system.mem_ctrls.rdPerTurnAround::172032-176127            1      0.00%    100.00% # Reads before turning the bus around for writes
system.mem_ctrls.rdPerTurnAround::total         45192                       # Reads before turning the bus around for writes
system.mem_ctrls.wrPerTurnAround::samples        45192                       # Writes before turning the bus around for reads
system.mem_ctrls.wrPerTurnAround::mean      16.506749                       # Writes before turning the bus around for reads
system.mem_ctrls.wrPerTurnAround::gmean     16.484971                       # Writes before turning the bus around for reads
system.mem_ctrls.wrPerTurnAround::stdev      0.864218                       # Writes before turning the bus around for reads
system.mem_ctrls.wrPerTurnAround::16            33504     74.14%     74.14% # Writes before turning the bus around for reads
system.mem_ctrls.wrPerTurnAround::17              490      1.08%     75.22% # Writes before turning the bus around for reads
system.mem_ctrls.wrPerTurnAround::18            11183     24.75%     99.97% # Writes before turning the bus around for reads
system.mem_ctrls.wrPerTurnAround::19               15      0.03%    100.00% # Writes before turning the bus around for reads
system.mem_ctrls.wrPerTurnAround::total         45192                       # Writes before turning the bus around for reads
system.mem_ctrls.bytesReadDRAM              402866752                       # Total number of bytes read from DRAM
system.mem_ctrls.bytesReadWrQ                  189056                       # Total number of bytes read from write queue
system.mem_ctrls.bytesWritten                47742272                       # Total number of bytes written to DRAM
system.mem_ctrls.bytesReadSys               403055808                       # Total read bytes from the system interface side
system.mem_ctrls.bytesWrittenSys             47745728                       # Total written bytes from the system interface side
system.mem_ctrls.avgRdBW                       268.28                       # Average DRAM read bandwidth in MiByte/s
system.mem_ctrls.avgWrBW                        31.79                       # Average achieved write bandwidth in MiByte/s
system.mem_ctrls.avgRdBWSys                    268.41                       # Average system read bandwidth in MiByte/s
system.mem_ctrls.avgWrBWSys                     31.80                       # Average system write bandwidth in MiByte/s
system.mem_ctrls.peakBW                      19207.00                       # Theoretical peak bandwidth in MiByte/s
system.mem_ctrls.busUtil                         1.56                       # Data bus utilization in percentage
system.mem_ctrls.busUtilRead                     1.40                       # Data bus utilization in percentage for reads
system.mem_ctrls.busUtilWrite                    0.17                       # Data bus utilization in percentage for writes
system.mem_ctrls.totGap                  1501644728790                       # Total gap between requests
system.mem_ctrls.avgGap                     213187.52                       # Average gap between requests
system.mem_ctrls.masterReadBytes::.cpu0.inst        28992                       # Per-master bytes read from memory
system.mem_ctrls.masterReadBytes::.cpu0.data    346645952                       # Per-master bytes read from memory
system.mem_ctrls.masterReadBytes::.cpu1.inst        60736                       # Per-master bytes read from memory
system.mem_ctrls.masterReadBytes::.cpu1.data     56131072                       # Per-master bytes read from memory
system.mem_ctrls.masterWriteBytes::.writebacks     47742272                       # Per-master bytes write to memory
system.mem_ctrls.masterReadRate::.cpu0.inst 19306.830033838334                       # Per-master bytes read from memory rate (Bytes/sec)
system.mem_ctrls.masterReadRate::.cpu0.data 230844180.366379737854                       # Per-master bytes read from memory rate (Bytes/sec)
system.mem_ctrls.masterReadRate::.cpu1.inst 40446.317223206577                       # Per-master bytes read from memory rate (Bytes/sec)
system.mem_ctrls.masterReadRate::.cpu1.data 37379727.742864996195                       # Per-master bytes read from memory rate (Bytes/sec)
system.mem_ctrls.masterWriteRate::.writebacks 31793319.913537491113                       # Per-master bytes write to memory rate (Bytes/sec)
system.mem_ctrls.masterReadAccesses::.cpu0.inst          453                       # Per-master read serviced memory accesses
system.mem_ctrls.masterReadAccesses::.cpu0.data      5416343                       # Per-master read serviced memory accesses
system.mem_ctrls.masterReadAccesses::.cpu1.inst          949                       # Per-master read serviced memory accesses
system.mem_ctrls.masterReadAccesses::.cpu1.data       880002                       # Per-master read serviced memory accesses
system.mem_ctrls.masterWriteAccesses::.writebacks       746027                       # Per-master write serviced memory accesses
system.mem_ctrls.masterReadTotalLat::.cpu0.inst     17261448                       # Per-master read total memory access latency
system.mem_ctrls.masterReadTotalLat::.cpu0.data 221594325214                       # Per-master read total memory access latency
system.mem_ctrls.masterReadTotalLat::.cpu1.inst     50023528                       # Per-master read total memory access latency
system.mem_ctrls.masterReadTotalLat::.cpu1.data  43040891621                       # Per-master read total memory access latency
system.mem_ctrls.masterWriteTotalLat::.writebacks 83096733737596                       # Per-master write total memory access latency
system.mem_ctrls.masterReadAvgLat::.cpu0.inst     38104.74                       # Per-master read average memory access latency
system.mem_ctrls.masterReadAvgLat::.cpu0.data     40912.17                       # Per-master read average memory access latency
system.mem_ctrls.masterReadAvgLat::.cpu1.inst     52711.83                       # Per-master read average memory access latency
system.mem_ctrls.masterReadAvgLat::.cpu1.data     48909.99                       # Per-master read average memory access latency
system.mem_ctrls.masterWriteAvgLat::.writebacks 111385692.12                       # Per-master write average memory access latency
system.mem_ctrls.pageHitRate                     0.00                       # Row buffer hit rate, read and write combined
system.mem_ctrls.rank1.actEnergy         5492769413.039104                       # Energy for activate commands per rank (pJ)
system.mem_ctrls.rank1.preEnergy         9696847864.728582                       # Energy for precharge commands per rank (pJ)
system.mem_ctrls.rank1.readEnergy        8638313044.125565                       # Energy for read commands per rank (pJ)
system.mem_ctrls.rank1.writeEnergy       880118971.535285                       # Energy for write commands per rank (pJ)
system.mem_ctrls.rank1.refreshEnergy     130350908140.735443                       # Energy for refresh commands per rank (pJ)
system.mem_ctrls.rank1.actBackEnergy     83845681576.779724                       # Energy for active background per rank (pJ)
system.mem_ctrls.rank1.preBackEnergy     432253534070.074768                       # Energy for precharge background per rank (pJ)
system.mem_ctrls.rank1.actPowerDownEnergy            0                       # Energy for active power-down per rank (pJ)
system.mem_ctrls.rank1.prePowerDownEnergy            0                       # Energy for precharge power-down per rank (pJ)
system.mem_ctrls.rank1.selfRefreshEnergy            0                       # Energy for self refresh per rank (pJ)
system.mem_ctrls.rank1.totalEnergy       671158173080.498047                       # Total energy per rank (pJ)
system.mem_ctrls.rank1.averagePower        446.948702                       # Core power per rank (mW)
system.mem_ctrls.rank1.totalIdleTime                0                       # Total Idle time Per DRAM Rank
system.mem_ctrls.rank1.memoryStateTime::IDLE 1274774101830                       # Time in different power states
system.mem_ctrls.rank1.memoryStateTime::REF  67503800000                       # Time in different power states
system.mem_ctrls.rank1.memoryStateTime::SREF            0                       # Time in different power states
system.mem_ctrls.rank1.memoryStateTime::PRE_PDN            0                       # Time in different power states
system.mem_ctrls.rank1.memoryStateTime::ACT 159366850270                       # Time in different power states
system.mem_ctrls.rank1.memoryStateTime::ACT_PDN            0                       # Time in different power states
system.mem_ctrls.rank0.actEnergy         5486432108.975249                       # Energy for activate commands per rank (pJ)
system.mem_ctrls.rank0.preEnergy         9685662838.529173                       # Energy for precharge commands per rank (pJ)
system.mem_ctrls.rank0.readEnergy        8627687040.228003                       # Energy for read commands per rank (pJ)
system.mem_ctrls.rank0.writeEnergy       879673109.951288                       # Energy for write commands per rank (pJ)
system.mem_ctrls.rank0.refreshEnergy     130350908140.735443                       # Energy for refresh commands per rank (pJ)
system.mem_ctrls.rank0.actBackEnergy     83786286204.436661                       # Energy for active background per rank (pJ)
system.mem_ctrls.rank0.preBackEnergy     432294537981.942749                       # Energy for precharge background per rank (pJ)
system.mem_ctrls.rank0.actPowerDownEnergy            0                       # Energy for active power-down per rank (pJ)
system.mem_ctrls.rank0.prePowerDownEnergy            0                       # Energy for precharge power-down per rank (pJ)
system.mem_ctrls.rank0.selfRefreshEnergy            0                       # Energy for self refresh per rank (pJ)
system.mem_ctrls.rank0.totalEnergy       671111187424.304321                       # Total energy per rank (pJ)
system.mem_ctrls.rank0.averagePower        446.917413                       # Core power per rank (mW)
system.mem_ctrls.rank0.totalIdleTime                0                       # Total Idle time Per DRAM Rank
system.mem_ctrls.rank0.memoryStateTime::IDLE 1274949327805                       # Time in different power states
system.mem_ctrls.rank0.memoryStateTime::REF  67503800000                       # Time in different power states
system.mem_ctrls.rank0.memoryStateTime::SREF            0                       # Time in different power states
system.mem_ctrls.rank0.memoryStateTime::PRE_PDN            0                       # Time in different power states
system.mem_ctrls.rank0.memoryStateTime::ACT 159191624295                       # Time in different power states
system.mem_ctrls.rank0.memoryStateTime::ACT_PDN            0                       # Time in different power states
system.cpu_clk_domain.clock                       333                       # Clock period in ticks
system.tol2bus.pwrStateResidencyTicks::UNDEFINED 1501644752100                       # Cumulative time (in ticks) in various power states
system.tol2bus.trans_dist::ReadResp          44927780                       # Transaction distribution
system.tol2bus.trans_dist::WritebackDirty     28804809                       # Transaction distribution
system.tol2bus.trans_dist::WritebackClean          484                       # Transaction distribution
system.tol2bus.trans_dist::CleanEvict        26020348                       # Transaction distribution
system.tol2bus.trans_dist::ReadExReq          3862669                       # Transaction distribution
system.tol2bus.trans_dist::ReadExResp         3862669                       # Transaction distribution
system.tol2bus.trans_dist::ReadCleanReq          1409                       # Transaction distribution
system.tol2bus.trans_dist::ReadSharedReq     44926372                       # Transaction distribution
system.tol2bus.pkt_count_system.cpu0.icache.mem_side::system.l2.cpu_side          946                       # Packet count per connected master and slave (bytes)
system.tol2bus.pkt_count_system.cpu0.dcache.mem_side::system.l2.cpu_side     28931390                       # Packet count per connected master and slave (bytes)
system.tol2bus.pkt_count_system.cpu1.icache.mem_side::system.l2.cpu_side         2356                       # Packet count per connected master and slave (bytes)
system.tol2bus.pkt_count_system.cpu1.dcache.mem_side::system.l2.cpu_side    117435715                       # Packet count per connected master and slave (bytes)
system.tol2bus.pkt_count::total             146370407                       # Packet count per connected master and slave (bytes)
system.tol2bus.pkt_size_system.cpu0.icache.mem_side::system.l2.cpu_side        31552                       # Cumulative packet size per connected master and slave (bytes)
system.tol2bus.pkt_size_system.cpu0.dcache.mem_side::system.l2.cpu_side    617314368                       # Cumulative packet size per connected master and slave (bytes)
system.tol2bus.pkt_size_system.cpu1.icache.mem_side::system.l2.cpu_side        89600                       # Cumulative packet size per connected master and slave (bytes)
system.tol2bus.pkt_size_system.cpu1.dcache.mem_side::system.l2.cpu_side   4300946240                       # Cumulative packet size per connected master and slave (bytes)
system.tol2bus.pkt_size::total             4918381760                       # Cumulative packet size per connected master and slave (bytes)
system.tol2bus.snoops                         6036133                       # Total snoops (count)
system.tol2bus.snoopTraffic                  47745728                       # Total snoop traffic (bytes)
system.tol2bus.snoop_fanout::samples         54826583                       # Request fanout histogram
system.tol2bus.snoop_fanout::mean            0.000031                       # Request fanout histogram
system.tol2bus.snoop_fanout::stdev           0.005530                       # Request fanout histogram
system.tol2bus.snoop_fanout::underflows             0      0.00%      0.00% # Request fanout histogram
system.tol2bus.snoop_fanout::0               54824906    100.00%    100.00% # Request fanout histogram
system.tol2bus.snoop_fanout::1                   1677      0.00%    100.00% # Request fanout histogram
system.tol2bus.snoop_fanout::2                      0      0.00%    100.00% # Request fanout histogram
system.tol2bus.snoop_fanout::3                      0      0.00%    100.00% # Request fanout histogram
system.tol2bus.snoop_fanout::4                      0      0.00%    100.00% # Request fanout histogram
system.tol2bus.snoop_fanout::5                      0      0.00%    100.00% # Request fanout histogram
system.tol2bus.snoop_fanout::6                      0      0.00%    100.00% # Request fanout histogram
system.tol2bus.snoop_fanout::7                      0      0.00%    100.00% # Request fanout histogram
system.tol2bus.snoop_fanout::8                      0      0.00%    100.00% # Request fanout histogram
system.tol2bus.snoop_fanout::overflows              0      0.00%    100.00% # Request fanout histogram
system.tol2bus.snoop_fanout::min_value              0                       # Request fanout histogram
system.tol2bus.snoop_fanout::max_value              1                       # Request fanout histogram
system.tol2bus.snoop_fanout::total           54826583                       # Request fanout histogram
system.tol2bus.reqLayer0.occupancy        51181597170                       # Layer occupancy (ticks)
system.tol2bus.reqLayer0.utilization              3.4                       # Layer utilization (%)
system.tol2bus.respLayer5.occupancy       39106184735                       # Layer occupancy (ticks)
system.tol2bus.respLayer5.utilization             2.6                       # Layer utilization (%)
system.tol2bus.respLayer4.occupancy            955044                       # Layer occupancy (ticks)
system.tol2bus.respLayer4.utilization             0.0                       # Layer utilization (%)
system.tol2bus.respLayer1.occupancy        9649455753                       # Layer occupancy (ticks)
system.tol2bus.respLayer1.utilization             0.6                       # Layer utilization (%)
system.tol2bus.respLayer0.occupancy            452879                       # Layer occupancy (ticks)
system.tol2bus.respLayer0.utilization             0.0                       # Layer utilization (%)

---------- End Simulation Statistics   ----------
