
---------- Begin Simulation Statistics ----------
final_tick                               1829114034021                       # Number of ticks from beginning of simulation (restored from checkpoints and never reset)
host_inst_rate                                 393878                       # Simulator instruction rate (inst/s)
host_mem_usage                                8612860                       # Number of bytes of host memory used
host_op_rate                                   748370                       # Simulator op (including micro ops) rate (op/s)
host_seconds                                  2538.92                       # Real time elapsed on the host
host_tick_rate                              720429908                       # Simulator tick rate (ticks/s)
sim_freq                                 1000000000000                       # Frequency of simulated ticks
sim_insts                                  1000025816                       # Number of instructions simulated
sim_ops                                    1900051938                       # Number of ops (including micro ops) simulated
sim_seconds                                  1.829114                       # Number of seconds simulated
sim_ticks                                1829114034021                       # Number of ticks simulated
system.cpu0.Branches                        100005070                       # Number of branches fetched
system.cpu0.committedInsts                 1000000001                       # Number of instructions committed
system.cpu0.committedOps                   1900003052                       # Number of ops (including micro ops) committed
system.cpu0.dtb.rdAccesses                  399992433                       # TLB accesses on read requests
system.cpu0.dtb.rdMisses                       195621                       # TLB misses on read requests
system.cpu0.dtb.wrAccesses                  199997894                       # TLB accesses on write requests
system.cpu0.dtb.wrMisses                           42                       # TLB misses on write requests
system.cpu0.idle_fraction                           0                       # Percentage of idle cycles
system.cpu0.itb.rdAccesses                          0                       # TLB accesses on read requests
system.cpu0.itb.rdMisses                            0                       # TLB misses on read requests
system.cpu0.itb.wrAccesses                 1300001549                       # TLB accesses on write requests
system.cpu0.itb.wrMisses                           42                       # TLB misses on write requests
system.cpu0.not_idle_fraction                       1                       # Percentage of non-idle cycles
system.cpu0.numCycles                      5492834937                       # number of cpu cycles simulated
system.cpu0.numWorkItemsCompleted                   0                       # number of work items this cpu completed
system.cpu0.numWorkItemsStarted                     0                       # number of work items this cpu started
system.cpu0.num_busy_cycles                5492834937                       # Number of busy cycles
system.cpu0.num_cc_register_reads           500025690                       # number of times the CC registers were read
system.cpu0.num_cc_register_writes          600000804                       # number of times the CC registers were written
system.cpu0.num_conditional_control_insts    100002724                       # number of instructions that are conditional controls
system.cpu0.num_fp_alu_accesses                  5835                       # Number of float alu accesses
system.cpu0.num_fp_insts                         5835                       # number of float instructions
system.cpu0.num_fp_register_reads                8883                       # number of times the floating registers were read
system.cpu0.num_fp_register_writes               4418                       # number of times the floating registers were written
system.cpu0.num_func_calls                       1296                       # number of times a function call or return occured
system.cpu0.num_idle_cycles                         0                       # Number of idle cycles
system.cpu0.num_int_alu_accesses           1899998501                       # Number of integer alu accesses
system.cpu0.num_int_insts                  1899998501                       # number of integer instructions
system.cpu0.num_int_register_reads         3799992253                       # number of times the integer registers were read
system.cpu0.num_int_register_writes        1599995227                       # number of times the integer registers were written
system.cpu0.num_load_insts                  399992395                       # Number of load instructions
system.cpu0.num_mem_refs                    599990254                       # number of memory refs
system.cpu0.num_store_insts                 199997859                       # Number of store instructions
system.cpu0.num_vec_alu_accesses                    0                       # Number of vector alu accesses
system.cpu0.num_vec_insts                           0                       # number of vector instructions
system.cpu0.num_vec_register_reads                  0                       # number of times the vector registers were read
system.cpu0.num_vec_register_writes                 0                       # number of times the vector registers were written
system.cpu0.op_class::No_OpClass                 1238      0.00%      0.00% # Class of executed instruction
system.cpu0.op_class::IntAlu               1300007784     68.42%     68.42% # Class of executed instruction
system.cpu0.op_class::IntMult                      65      0.00%     68.42% # Class of executed instruction
system.cpu0.op_class::IntDiv                      273      0.00%     68.42% # Class of executed instruction
system.cpu0.op_class::FloatAdd                    210      0.00%     68.42% # Class of executed instruction
system.cpu0.op_class::FloatCmp                      0      0.00%     68.42% # Class of executed instruction
system.cpu0.op_class::FloatCvt                      0      0.00%     68.42% # Class of executed instruction
system.cpu0.op_class::FloatMult                     0      0.00%     68.42% # Class of executed instruction
system.cpu0.op_class::FloatMultAcc                  0      0.00%     68.42% # Class of executed instruction
system.cpu0.op_class::FloatDiv                      0      0.00%     68.42% # Class of executed instruction
system.cpu0.op_class::FloatMisc                     0      0.00%     68.42% # Class of executed instruction
system.cpu0.op_class::FloatSqrt                     0      0.00%     68.42% # Class of executed instruction
system.cpu0.op_class::SimdAdd                       0      0.00%     68.42% # Class of executed instruction
system.cpu0.op_class::SimdAddAcc                    0      0.00%     68.42% # Class of executed instruction
system.cpu0.op_class::SimdAlu                     794      0.00%     68.42% # Class of executed instruction
system.cpu0.op_class::SimdCmp                       0      0.00%     68.42% # Class of executed instruction
system.cpu0.op_class::SimdCvt                    1166      0.00%     68.42% # Class of executed instruction
system.cpu0.op_class::SimdMisc                   1268      0.00%     68.42% # Class of executed instruction
system.cpu0.op_class::SimdMult                      0      0.00%     68.42% # Class of executed instruction
system.cpu0.op_class::SimdMultAcc                   0      0.00%     68.42% # Class of executed instruction
system.cpu0.op_class::SimdShift                     0      0.00%     68.42% # Class of executed instruction
system.cpu0.op_class::SimdShiftAcc                  0      0.00%     68.42% # Class of executed instruction
system.cpu0.op_class::SimdDiv                       0      0.00%     68.42% # Class of executed instruction
system.cpu0.op_class::SimdSqrt                      0      0.00%     68.42% # Class of executed instruction
system.cpu0.op_class::SimdFloatAdd                  0      0.00%     68.42% # Class of executed instruction
system.cpu0.op_class::SimdFloatAlu                  0      0.00%     68.42% # Class of executed instruction
system.cpu0.op_class::SimdFloatCmp                  0      0.00%     68.42% # Class of executed instruction
system.cpu0.op_class::SimdFloatCvt                  0      0.00%     68.42% # Class of executed instruction
system.cpu0.op_class::SimdFloatDiv                  0      0.00%     68.42% # Class of executed instruction
system.cpu0.op_class::SimdFloatMisc                 0      0.00%     68.42% # Class of executed instruction
system.cpu0.op_class::SimdFloatMult                 0      0.00%     68.42% # Class of executed instruction
system.cpu0.op_class::SimdFloatMultAcc              0      0.00%     68.42% # Class of executed instruction
system.cpu0.op_class::SimdFloatSqrt                 0      0.00%     68.42% # Class of executed instruction
system.cpu0.op_class::SimdReduceAdd                 0      0.00%     68.42% # Class of executed instruction
system.cpu0.op_class::SimdReduceAlu                 0      0.00%     68.42% # Class of executed instruction
system.cpu0.op_class::SimdReduceCmp                 0      0.00%     68.42% # Class of executed instruction
system.cpu0.op_class::SimdFloatReduceAdd            0      0.00%     68.42% # Class of executed instruction
system.cpu0.op_class::SimdFloatReduceCmp            0      0.00%     68.42% # Class of executed instruction
system.cpu0.op_class::SimdAes                       0      0.00%     68.42% # Class of executed instruction
system.cpu0.op_class::SimdAesMix                    0      0.00%     68.42% # Class of executed instruction
system.cpu0.op_class::SimdSha1Hash                  0      0.00%     68.42% # Class of executed instruction
system.cpu0.op_class::SimdSha1Hash2                 0      0.00%     68.42% # Class of executed instruction
system.cpu0.op_class::SimdSha256Hash                0      0.00%     68.42% # Class of executed instruction
system.cpu0.op_class::SimdSha256Hash2               0      0.00%     68.42% # Class of executed instruction
system.cpu0.op_class::SimdShaSigma2                 0      0.00%     68.42% # Class of executed instruction
system.cpu0.op_class::SimdShaSigma3                 0      0.00%     68.42% # Class of executed instruction
system.cpu0.op_class::SimdPredAlu                   0      0.00%     68.42% # Class of executed instruction
system.cpu0.op_class::MemRead               399991440     21.05%     89.47% # Class of executed instruction
system.cpu0.op_class::MemWrite              199997048     10.53%    100.00% # Class of executed instruction
system.cpu0.op_class::FloatMemRead                955      0.00%    100.00% # Class of executed instruction
system.cpu0.op_class::FloatMemWrite               811      0.00%    100.00% # Class of executed instruction
system.cpu0.op_class::IprAccess                     0      0.00%    100.00% # Class of executed instruction
system.cpu0.op_class::InstPrefetch                  0      0.00%    100.00% # Class of executed instruction
system.cpu0.op_class::total                1900003052                       # Class of executed instruction
system.cpu0.workload.numSyscalls                   45                       # Number of system calls
system.cpu1.Branches                             5305                       # Number of branches fetched
system.cpu1.committedInsts                      25815                       # Number of instructions committed
system.cpu1.committedOps                        48886                       # Number of ops (including micro ops) committed
system.cpu1.dtb.rdAccesses                       3726                       # TLB accesses on read requests
system.cpu1.dtb.rdMisses                           16                       # TLB misses on read requests
system.cpu1.dtb.wrAccesses                       3337                       # TLB accesses on write requests
system.cpu1.dtb.wrMisses                           12                       # TLB misses on write requests
system.cpu1.idle_fraction                    0.999935                       # Percentage of idle cycles
system.cpu1.itb.rdAccesses                          0                       # TLB accesses on read requests
system.cpu1.itb.rdMisses                            0                       # TLB misses on read requests
system.cpu1.itb.wrAccesses                      33762                       # TLB accesses on write requests
system.cpu1.itb.wrMisses                           57                       # TLB misses on write requests
system.cpu1.not_idle_fraction                0.000065                       # Percentage of non-idle cycles
system.cpu1.numCycles                          356979                       # number of cpu cycles simulated
system.cpu1.numWorkItemsCompleted                   0                       # number of work items this cpu completed
system.cpu1.numWorkItemsStarted                     0                       # number of work items this cpu started
system.cpu1.num_busy_cycles                 23.200043                       # Number of busy cycles
system.cpu1.num_cc_register_reads               28041                       # number of times the CC registers were read
system.cpu1.num_cc_register_writes              19042                       # number of times the CC registers were written
system.cpu1.num_conditional_control_insts         4562                       # number of instructions that are conditional controls
system.cpu1.num_fp_alu_accesses                  2070                       # Number of float alu accesses
system.cpu1.num_fp_insts                         2070                       # number of float instructions
system.cpu1.num_fp_register_reads                2549                       # number of times the floating registers were read
system.cpu1.num_fp_register_writes               1298                       # number of times the floating registers were written
system.cpu1.num_func_calls                        475                       # number of times a function call or return occured
system.cpu1.num_idle_cycles              356955.799957                       # Number of idle cycles
system.cpu1.num_int_alu_accesses                47578                       # Number of integer alu accesses
system.cpu1.num_int_insts                       47578                       # number of integer instructions
system.cpu1.num_int_register_reads              90915                       # number of times the integer registers were read
system.cpu1.num_int_register_writes             39340                       # number of times the integer registers were written
system.cpu1.num_load_insts                       3713                       # Number of load instructions
system.cpu1.num_mem_refs                         7045                       # number of memory refs
system.cpu1.num_store_insts                      3332                       # Number of store instructions
system.cpu1.num_vec_alu_accesses                    0                       # Number of vector alu accesses
system.cpu1.num_vec_insts                           0                       # number of vector instructions
system.cpu1.num_vec_register_reads                  0                       # number of times the vector registers were read
system.cpu1.num_vec_register_writes                 0                       # number of times the vector registers were written
system.cpu1.op_class::No_OpClass                  430      0.88%      0.88% # Class of executed instruction
system.cpu1.op_class::IntAlu                    39751     81.31%     82.19% # Class of executed instruction
system.cpu1.op_class::IntMult                     651      1.33%     83.52% # Class of executed instruction
system.cpu1.op_class::IntDiv                       42      0.09%     83.61% # Class of executed instruction
system.cpu1.op_class::FloatAdd                    158      0.32%     83.93% # Class of executed instruction
system.cpu1.op_class::FloatCmp                      0      0.00%     83.93% # Class of executed instruction
system.cpu1.op_class::FloatCvt                      0      0.00%     83.93% # Class of executed instruction
system.cpu1.op_class::FloatMult                     0      0.00%     83.93% # Class of executed instruction
system.cpu1.op_class::FloatMultAcc                  0      0.00%     83.93% # Class of executed instruction
system.cpu1.op_class::FloatDiv                      0      0.00%     83.93% # Class of executed instruction
system.cpu1.op_class::FloatMisc                     0      0.00%     83.93% # Class of executed instruction
system.cpu1.op_class::FloatSqrt                     0      0.00%     83.93% # Class of executed instruction
system.cpu1.op_class::SimdAdd                       0      0.00%     83.93% # Class of executed instruction
system.cpu1.op_class::SimdAddAcc                    0      0.00%     83.93% # Class of executed instruction
system.cpu1.op_class::SimdAlu                     176      0.36%     84.29% # Class of executed instruction
system.cpu1.op_class::SimdCmp                      54      0.11%     84.40% # Class of executed instruction
system.cpu1.op_class::SimdCvt                     188      0.38%     84.79% # Class of executed instruction
system.cpu1.op_class::SimdMisc                    391      0.80%     85.59% # Class of executed instruction
system.cpu1.op_class::SimdMult                      0      0.00%     85.59% # Class of executed instruction
system.cpu1.op_class::SimdMultAcc                   0      0.00%     85.59% # Class of executed instruction
system.cpu1.op_class::SimdShift                     0      0.00%     85.59% # Class of executed instruction
system.cpu1.op_class::SimdShiftAcc                  0      0.00%     85.59% # Class of executed instruction
system.cpu1.op_class::SimdDiv                       0      0.00%     85.59% # Class of executed instruction
system.cpu1.op_class::SimdSqrt                      0      0.00%     85.59% # Class of executed instruction
system.cpu1.op_class::SimdFloatAdd                  0      0.00%     85.59% # Class of executed instruction
system.cpu1.op_class::SimdFloatAlu                  0      0.00%     85.59% # Class of executed instruction
system.cpu1.op_class::SimdFloatCmp                  0      0.00%     85.59% # Class of executed instruction
system.cpu1.op_class::SimdFloatCvt                  0      0.00%     85.59% # Class of executed instruction
system.cpu1.op_class::SimdFloatDiv                  0      0.00%     85.59% # Class of executed instruction
system.cpu1.op_class::SimdFloatMisc                 0      0.00%     85.59% # Class of executed instruction
system.cpu1.op_class::SimdFloatMult                 0      0.00%     85.59% # Class of executed instruction
system.cpu1.op_class::SimdFloatMultAcc              0      0.00%     85.59% # Class of executed instruction
system.cpu1.op_class::SimdFloatSqrt                 0      0.00%     85.59% # Class of executed instruction
system.cpu1.op_class::SimdReduceAdd                 0      0.00%     85.59% # Class of executed instruction
system.cpu1.op_class::SimdReduceAlu                 0      0.00%     85.59% # Class of executed instruction
system.cpu1.op_class::SimdReduceCmp                 0      0.00%     85.59% # Class of executed instruction
system.cpu1.op_class::SimdFloatReduceAdd            0      0.00%     85.59% # Class of executed instruction
system.cpu1.op_class::SimdFloatReduceCmp            0      0.00%     85.59% # Class of executed instruction
system.cpu1.op_class::SimdAes                       0      0.00%     85.59% # Class of executed instruction
system.cpu1.op_class::SimdAesMix                    0      0.00%     85.59% # Class of executed instruction
system.cpu1.op_class::SimdSha1Hash                  0      0.00%     85.59% # Class of executed instruction
system.cpu1.op_class::SimdSha1Hash2                 0      0.00%     85.59% # Class of executed instruction
system.cpu1.op_class::SimdSha256Hash                0      0.00%     85.59% # Class of executed instruction
system.cpu1.op_class::SimdSha256Hash2               0      0.00%     85.59% # Class of executed instruction
system.cpu1.op_class::SimdShaSigma2                 0      0.00%     85.59% # Class of executed instruction
system.cpu1.op_class::SimdShaSigma3                 0      0.00%     85.59% # Class of executed instruction
system.cpu1.op_class::SimdPredAlu                   0      0.00%     85.59% # Class of executed instruction
system.cpu1.op_class::MemRead                    3416      6.99%     92.58% # Class of executed instruction
system.cpu1.op_class::MemWrite                   2722      5.57%     98.14% # Class of executed instruction
system.cpu1.op_class::FloatMemRead                297      0.61%     98.75% # Class of executed instruction
system.cpu1.op_class::FloatMemWrite               610      1.25%    100.00% # Class of executed instruction
system.cpu1.op_class::IprAccess                     0      0.00%    100.00% # Class of executed instruction
system.cpu1.op_class::InstPrefetch                  0      0.00%    100.00% # Class of executed instruction
system.cpu1.op_class::total                     48886                       # Class of executed instruction
system.cpu1.workload.numSyscalls                   15                       # Number of system calls
system.membus.snoop_filter.hit_multi_requests            0                       # Number of requests hitting in the snoop filter with multiple (>1) holders of the requested data.
system.membus.snoop_filter.hit_multi_snoops            0                       # Number of snoops hitting in the snoop filter with multiple (>1) holders of the requested data.
system.membus.snoop_filter.hit_single_requests      5579882                       # Number of requests hitting in the snoop filter with a single holder of the requested data.
system.membus.snoop_filter.hit_single_snoops            0                       # Number of snoops hitting in the snoop filter with a single holder of the requested data.
system.membus.snoop_filter.tot_requests      11422827                       # Total number of requests made to the snoop filter.
system.membus.snoop_filter.tot_snoops               0                       # Total number of snoops made to the snoop filter.
system.tol2bus.snoop_filter.hit_multi_requests            0                       # Number of requests hitting in the snoop filter with multiple (>1) holders of the requested data.
system.tol2bus.snoop_filter.hit_multi_snoops            0                       # Number of snoops hitting in the snoop filter with multiple (>1) holders of the requested data.
system.tol2bus.snoop_filter.hit_single_requests     12504339                       # Number of requests hitting in the snoop filter with a single holder of the requested data.
system.tol2bus.snoop_filter.hit_single_snoops          948                       # Number of snoops hitting in the snoop filter with a single holder of the requested data.
system.tol2bus.snoop_filter.tot_requests     25009604                       # Total number of requests made to the snoop filter.
system.tol2bus.snoop_filter.tot_snoops            948                       # Total number of snoops made to the snoop filter.
system.membus.pwrStateResidencyTicks::UNDEFINED 1829114034021                       # Cumulative time (in ticks) in various power states
system.membus.trans_dist::ReadResp            5842312                       # Transaction distribution
system.membus.trans_dist::WritebackDirty          730                       # Transaction distribution
system.membus.trans_dist::CleanEvict          5579152                       # Transaction distribution
system.membus.trans_dist::ReadExReq               633                       # Transaction distribution
system.membus.trans_dist::ReadExResp              633                       # Transaction distribution
system.membus.trans_dist::ReadSharedReq       5842312                       # Transaction distribution
system.membus.pkt_count_system.l2.mem_side::system.mem_ctrls.port     17265772                       # Packet count per connected master and slave (bytes)
system.membus.pkt_count_system.l2.mem_side::total     17265772                       # Packet count per connected master and slave (bytes)
system.membus.pkt_count::total               17265772                       # Packet count per connected master and slave (bytes)
system.membus.pkt_size_system.l2.mem_side::system.mem_ctrls.port    373995200                       # Cumulative packet size per connected master and slave (bytes)
system.membus.pkt_size_system.l2.mem_side::total    373995200                       # Cumulative packet size per connected master and slave (bytes)
system.membus.pkt_size::total               373995200                       # Cumulative packet size per connected master and slave (bytes)
system.membus.snoops                                0                       # Total snoops (count)
system.membus.snoopTraffic                          0                       # Total snoop traffic (bytes)
system.membus.snoop_fanout::samples           5842945                       # Request fanout histogram
system.membus.snoop_fanout::mean                    0                       # Request fanout histogram
system.membus.snoop_fanout::stdev                   0                       # Request fanout histogram
system.membus.snoop_fanout::underflows              0      0.00%      0.00% # Request fanout histogram
system.membus.snoop_fanout::0                 5842945    100.00%    100.00% # Request fanout histogram
system.membus.snoop_fanout::1                       0      0.00%    100.00% # Request fanout histogram
system.membus.snoop_fanout::overflows               0      0.00%    100.00% # Request fanout histogram
system.membus.snoop_fanout::min_value               0                       # Request fanout histogram
system.membus.snoop_fanout::max_value               0                       # Request fanout histogram
system.membus.snoop_fanout::total             5842945                       # Request fanout histogram
system.membus.reqLayer4.occupancy         19106850809                       # Layer occupancy (ticks)
system.membus.reqLayer4.utilization               1.0                       # Layer utilization (%)
system.membus.respLayer1.occupancy        31275755224                       # Layer occupancy (ticks)
system.membus.respLayer1.utilization              1.7                       # Layer utilization (%)
system.voltage_domain.voltage                       1                       # Voltage in Volts
system.clk_domain.clock                          1000                       # Clock period in ticks
system.cpu0.numPwrStateTransitions                  1                       # Number of power state transitions
system.cpu0.pwrStateResidencyTicks::ON   1829114034021                       # Cumulative time (in ticks) in various power states
system.cpu0.icache.pwrStateResidencyTicks::UNDEFINED 1829114034021                       # Cumulative time (in ticks) in various power states
system.cpu0.icache.demand_hits::.cpu0.inst   1300001096                       # number of demand (read+write) hits
system.cpu0.icache.demand_hits::total      1300001096                       # number of demand (read+write) hits
system.cpu0.icache.overall_hits::.cpu0.inst   1300001096                       # number of overall hits
system.cpu0.icache.overall_hits::total     1300001096                       # number of overall hits
system.cpu0.icache.demand_misses::.cpu0.inst          453                       # number of demand (read+write) misses
system.cpu0.icache.demand_misses::total           453                       # number of demand (read+write) misses
system.cpu0.icache.overall_misses::.cpu0.inst          453                       # number of overall misses
system.cpu0.icache.overall_misses::total          453                       # number of overall misses
system.cpu0.icache.demand_miss_latency::.cpu0.inst     38599695                       # number of demand (read+write) miss cycles
system.cpu0.icache.demand_miss_latency::total     38599695                       # number of demand (read+write) miss cycles
system.cpu0.icache.overall_miss_latency::.cpu0.inst     38599695                       # number of overall miss cycles
system.cpu0.icache.overall_miss_latency::total     38599695                       # number of overall miss cycles
system.cpu0.icache.demand_accesses::.cpu0.inst   1300001549                       # number of demand (read+write) accesses
system.cpu0.icache.demand_accesses::total   1300001549                       # number of demand (read+write) accesses
system.cpu0.icache.overall_accesses::.cpu0.inst   1300001549                       # number of overall (read+write) accesses
system.cpu0.icache.overall_accesses::total   1300001549                       # number of overall (read+write) accesses
system.cpu0.icache.demand_miss_rate::.cpu0.inst     0.000000                       # miss rate for demand accesses
system.cpu0.icache.demand_miss_rate::total     0.000000                       # miss rate for demand accesses
system.cpu0.icache.overall_miss_rate::.cpu0.inst     0.000000                       # miss rate for overall accesses
system.cpu0.icache.overall_miss_rate::total     0.000000                       # miss rate for overall accesses
system.cpu0.icache.demand_avg_miss_latency::.cpu0.inst 85209.039735                       # average overall miss latency
system.cpu0.icache.demand_avg_miss_latency::total 85209.039735                       # average overall miss latency
system.cpu0.icache.overall_avg_miss_latency::.cpu0.inst 85209.039735                       # average overall miss latency
system.cpu0.icache.overall_avg_miss_latency::total 85209.039735                       # average overall miss latency
system.cpu0.icache.blocked_cycles::no_mshrs            0                       # number of cycles access was blocked
system.cpu0.icache.blocked_cycles::no_targets            0                       # number of cycles access was blocked
system.cpu0.icache.blocked::no_mshrs                0                       # number of cycles access was blocked
system.cpu0.icache.blocked::no_targets              0                       # number of cycles access was blocked
system.cpu0.icache.avg_blocked_cycles::no_mshrs          nan                       # average number of cycles each access was blocked
system.cpu0.icache.avg_blocked_cycles::no_targets          nan                       # average number of cycles each access was blocked
system.cpu0.icache.writebacks::.writebacks           40                       # number of writebacks
system.cpu0.icache.writebacks::total               40                       # number of writebacks
system.cpu0.icache.demand_mshr_misses::.cpu0.inst          453                       # number of demand (read+write) MSHR misses
system.cpu0.icache.demand_mshr_misses::total          453                       # number of demand (read+write) MSHR misses
system.cpu0.icache.overall_mshr_misses::.cpu0.inst          453                       # number of overall MSHR misses
system.cpu0.icache.overall_mshr_misses::total          453                       # number of overall MSHR misses
system.cpu0.icache.demand_mshr_miss_latency::.cpu0.inst     38297997                       # number of demand (read+write) MSHR miss cycles
system.cpu0.icache.demand_mshr_miss_latency::total     38297997                       # number of demand (read+write) MSHR miss cycles
system.cpu0.icache.overall_mshr_miss_latency::.cpu0.inst     38297997                       # number of overall MSHR miss cycles
system.cpu0.icache.overall_mshr_miss_latency::total     38297997                       # number of overall MSHR miss cycles
system.cpu0.icache.demand_mshr_miss_rate::.cpu0.inst     0.000000                       # mshr miss rate for demand accesses
system.cpu0.icache.demand_mshr_miss_rate::total     0.000000                       # mshr miss rate for demand accesses
system.cpu0.icache.overall_mshr_miss_rate::.cpu0.inst     0.000000                       # mshr miss rate for overall accesses
system.cpu0.icache.overall_mshr_miss_rate::total     0.000000                       # mshr miss rate for overall accesses
system.cpu0.icache.demand_avg_mshr_miss_latency::.cpu0.inst 84543.039735                       # average overall mshr miss latency
system.cpu0.icache.demand_avg_mshr_miss_latency::total 84543.039735                       # average overall mshr miss latency
system.cpu0.icache.overall_avg_mshr_miss_latency::.cpu0.inst 84543.039735                       # average overall mshr miss latency
system.cpu0.icache.overall_avg_mshr_miss_latency::total 84543.039735                       # average overall mshr miss latency
system.cpu0.icache.replacements                    40                       # number of replacements
system.cpu0.icache.ReadReq_hits::.cpu0.inst   1300001096                       # number of ReadReq hits
system.cpu0.icache.ReadReq_hits::total     1300001096                       # number of ReadReq hits
system.cpu0.icache.ReadReq_misses::.cpu0.inst          453                       # number of ReadReq misses
system.cpu0.icache.ReadReq_misses::total          453                       # number of ReadReq misses
system.cpu0.icache.ReadReq_miss_latency::.cpu0.inst     38599695                       # number of ReadReq miss cycles
system.cpu0.icache.ReadReq_miss_latency::total     38599695                       # number of ReadReq miss cycles
system.cpu0.icache.ReadReq_accesses::.cpu0.inst   1300001549                       # number of ReadReq accesses(hits+misses)
system.cpu0.icache.ReadReq_accesses::total   1300001549                       # number of ReadReq accesses(hits+misses)
system.cpu0.icache.ReadReq_miss_rate::.cpu0.inst     0.000000                       # miss rate for ReadReq accesses
system.cpu0.icache.ReadReq_miss_rate::total     0.000000                       # miss rate for ReadReq accesses
system.cpu0.icache.ReadReq_avg_miss_latency::.cpu0.inst 85209.039735                       # average ReadReq miss latency
system.cpu0.icache.ReadReq_avg_miss_latency::total 85209.039735                       # average ReadReq miss latency
system.cpu0.icache.ReadReq_mshr_misses::.cpu0.inst          453                       # number of ReadReq MSHR misses
system.cpu0.icache.ReadReq_mshr_misses::total          453                       # number of ReadReq MSHR misses
system.cpu0.icache.ReadReq_mshr_miss_latency::.cpu0.inst     38297997                       # number of ReadReq MSHR miss cycles
system.cpu0.icache.ReadReq_mshr_miss_latency::total     38297997                       # number of ReadReq MSHR miss cycles
system.cpu0.icache.ReadReq_mshr_miss_rate::.cpu0.inst     0.000000                       # mshr miss rate for ReadReq accesses
system.cpu0.icache.ReadReq_mshr_miss_rate::total     0.000000                       # mshr miss rate for ReadReq accesses
system.cpu0.icache.ReadReq_avg_mshr_miss_latency::.cpu0.inst 84543.039735                       # average ReadReq mshr miss latency
system.cpu0.icache.ReadReq_avg_mshr_miss_latency::total 84543.039735                       # average ReadReq mshr miss latency
system.cpu0.icache.tags.pwrStateResidencyTicks::UNDEFINED 1829114034021                       # Cumulative time (in ticks) in various power states
system.cpu0.icache.tags.tagsinuse          410.387911                       # Cycle average of tags in use
system.cpu0.icache.tags.total_refs         1300001549                       # Total number of references to valid blocks.
system.cpu0.icache.tags.sampled_refs              453                       # Sample count of references to valid blocks.
system.cpu0.icache.tags.avg_refs         2869760.593819                       # Average number of references to valid blocks.
system.cpu0.icache.tags.warmup_cycle            83250                       # Cycle when the warmup percentage was hit.
system.cpu0.icache.tags.occ_blocks::.cpu0.inst   410.387911                       # Average occupied blocks per requestor
system.cpu0.icache.tags.occ_percent::.cpu0.inst     0.801539                       # Average percentage of cache occupancy
system.cpu0.icache.tags.occ_percent::total     0.801539                       # Average percentage of cache occupancy
system.cpu0.icache.tags.occ_task_id_blocks::1024          413                       # Occupied blocks per task id
system.cpu0.icache.tags.age_task_id_blocks_1024::4          413                       # Occupied blocks per task id
system.cpu0.icache.tags.occ_task_id_percent::1024     0.806641                       # Percentage of cache occupancy per task id
system.cpu0.icache.tags.tag_accesses      10400012845                       # Number of tag accesses
system.cpu0.icache.tags.data_accesses     10400012845                       # Number of data accesses
system.cpu0.icache.tags.repl_invalid                0                       # Number of initial replacements
system.cpu0.icache.tags.repl_valid_tag              0                       # Number of local replacements
system.cpu0.icache.tags.repl_valid_data             0                       # Number of global replacements
system.cpu0.dtb.walker.pwrStateResidencyTicks::UNDEFINED 1829114034021                       # Cumulative time (in ticks) in various power states
system.cpu0.interrupts.clk_domain.clock          5328                       # Clock period in ticks
system.cpu0.itb_walker_cache.pwrStateResidencyTicks::UNDEFINED 1829114034021                       # Cumulative time (in ticks) in various power states
system.cpu0.itb_walker_cache.blocked_cycles::no_mshrs            0                       # number of cycles access was blocked
system.cpu0.itb_walker_cache.blocked_cycles::no_targets            0                       # number of cycles access was blocked
system.cpu0.itb_walker_cache.blocked::no_mshrs            0                       # number of cycles access was blocked
system.cpu0.itb_walker_cache.blocked::no_targets            0                       # number of cycles access was blocked
system.cpu0.itb_walker_cache.avg_blocked_cycles::no_mshrs          nan                       # average number of cycles each access was blocked
system.cpu0.itb_walker_cache.avg_blocked_cycles::no_targets          nan                       # average number of cycles each access was blocked
system.cpu0.itb_walker_cache.replacements            0                       # number of replacements
system.cpu0.itb_walker_cache.tags.pwrStateResidencyTicks::UNDEFINED 1829114034021                       # Cumulative time (in ticks) in various power states
system.cpu0.itb_walker_cache.tags.tagsinuse            0                       # Cycle average of tags in use
system.cpu0.itb_walker_cache.tags.total_refs            0                       # Total number of references to valid blocks.
system.cpu0.itb_walker_cache.tags.sampled_refs            0                       # Sample count of references to valid blocks.
system.cpu0.itb_walker_cache.tags.avg_refs          nan                       # Average number of references to valid blocks.
system.cpu0.itb_walker_cache.tags.warmup_cycle            0                       # Cycle when the warmup percentage was hit.
system.cpu0.itb_walker_cache.tags.tag_accesses            0                       # Number of tag accesses
system.cpu0.itb_walker_cache.tags.data_accesses            0                       # Number of data accesses
system.cpu0.itb_walker_cache.tags.repl_invalid            0                       # Number of initial replacements
system.cpu0.itb_walker_cache.tags.repl_valid_tag            0                       # Number of local replacements
system.cpu0.itb_walker_cache.tags.repl_valid_data            0                       # Number of global replacements
system.cpu0.itb.walker.pwrStateResidencyTicks::UNDEFINED 1829114034021                       # Cumulative time (in ticks) in various power states
system.cpu0.dtb_walker_cache.pwrStateResidencyTicks::UNDEFINED 1829114034021                       # Cumulative time (in ticks) in various power states
system.cpu0.dtb_walker_cache.blocked_cycles::no_mshrs            0                       # number of cycles access was blocked
system.cpu0.dtb_walker_cache.blocked_cycles::no_targets            0                       # number of cycles access was blocked
system.cpu0.dtb_walker_cache.blocked::no_mshrs            0                       # number of cycles access was blocked
system.cpu0.dtb_walker_cache.blocked::no_targets            0                       # number of cycles access was blocked
system.cpu0.dtb_walker_cache.avg_blocked_cycles::no_mshrs          nan                       # average number of cycles each access was blocked
system.cpu0.dtb_walker_cache.avg_blocked_cycles::no_targets          nan                       # average number of cycles each access was blocked
system.cpu0.dtb_walker_cache.replacements            0                       # number of replacements
system.cpu0.dtb_walker_cache.tags.pwrStateResidencyTicks::UNDEFINED 1829114034021                       # Cumulative time (in ticks) in various power states
system.cpu0.dtb_walker_cache.tags.tagsinuse            0                       # Cycle average of tags in use
system.cpu0.dtb_walker_cache.tags.total_refs            0                       # Total number of references to valid blocks.
system.cpu0.dtb_walker_cache.tags.sampled_refs            0                       # Sample count of references to valid blocks.
system.cpu0.dtb_walker_cache.tags.avg_refs          nan                       # Average number of references to valid blocks.
system.cpu0.dtb_walker_cache.tags.warmup_cycle            0                       # Cycle when the warmup percentage was hit.
system.cpu0.dtb_walker_cache.tags.tag_accesses            0                       # Number of tag accesses
system.cpu0.dtb_walker_cache.tags.data_accesses            0                       # Number of data accesses
system.cpu0.dtb_walker_cache.tags.repl_invalid            0                       # Number of initial replacements
system.cpu0.dtb_walker_cache.tags.repl_valid_tag            0                       # Number of local replacements
system.cpu0.dtb_walker_cache.tags.repl_valid_data            0                       # Number of global replacements
system.cpu0.dcache.pwrStateResidencyTicks::UNDEFINED 1829114034021                       # Cumulative time (in ticks) in various power states
system.cpu0.dcache.demand_hits::.cpu0.data    587487306                       # number of demand (read+write) hits
system.cpu0.dcache.demand_hits::total       587487306                       # number of demand (read+write) hits
system.cpu0.dcache.overall_hits::.cpu0.data    587487306                       # number of overall hits
system.cpu0.dcache.overall_hits::total      587487306                       # number of overall hits
system.cpu0.dcache.demand_misses::.cpu0.data     12503021                       # number of demand (read+write) misses
system.cpu0.dcache.demand_misses::total      12503021                       # number of demand (read+write) misses
system.cpu0.dcache.overall_misses::.cpu0.data     12503021                       # number of overall misses
system.cpu0.dcache.overall_misses::total     12503021                       # number of overall misses
system.cpu0.dcache.demand_miss_latency::.cpu0.data 572008216869                       # number of demand (read+write) miss cycles
system.cpu0.dcache.demand_miss_latency::total 572008216869                       # number of demand (read+write) miss cycles
system.cpu0.dcache.overall_miss_latency::.cpu0.data 572008216869                       # number of overall miss cycles
system.cpu0.dcache.overall_miss_latency::total 572008216869                       # number of overall miss cycles
system.cpu0.dcache.demand_accesses::.cpu0.data    599990327                       # number of demand (read+write) accesses
system.cpu0.dcache.demand_accesses::total    599990327                       # number of demand (read+write) accesses
system.cpu0.dcache.overall_accesses::.cpu0.data    599990327                       # number of overall (read+write) accesses
system.cpu0.dcache.overall_accesses::total    599990327                       # number of overall (read+write) accesses
system.cpu0.dcache.demand_miss_rate::.cpu0.data     0.020839                       # miss rate for demand accesses
system.cpu0.dcache.demand_miss_rate::total     0.020839                       # miss rate for demand accesses
system.cpu0.dcache.overall_miss_rate::.cpu0.data     0.020839                       # miss rate for overall accesses
system.cpu0.dcache.overall_miss_rate::total     0.020839                       # miss rate for overall accesses
system.cpu0.dcache.demand_avg_miss_latency::.cpu0.data 45749.600586                       # average overall miss latency
system.cpu0.dcache.demand_avg_miss_latency::total 45749.600586                       # average overall miss latency
system.cpu0.dcache.overall_avg_miss_latency::.cpu0.data 45749.600586                       # average overall miss latency
system.cpu0.dcache.overall_avg_miss_latency::total 45749.600586                       # average overall miss latency
system.cpu0.dcache.blocked_cycles::no_mshrs            0                       # number of cycles access was blocked
system.cpu0.dcache.blocked_cycles::no_targets            0                       # number of cycles access was blocked
system.cpu0.dcache.blocked::no_mshrs                0                       # number of cycles access was blocked
system.cpu0.dcache.blocked::no_targets              0                       # number of cycles access was blocked
system.cpu0.dcache.avg_blocked_cycles::no_mshrs          nan                       # average number of cycles each access was blocked
system.cpu0.dcache.avg_blocked_cycles::no_targets          nan                       # average number of cycles each access was blocked
system.cpu0.dcache.writebacks::.writebacks         2118                       # number of writebacks
system.cpu0.dcache.writebacks::total             2118                       # number of writebacks
system.cpu0.dcache.demand_mshr_misses::.cpu0.data     12503021                       # number of demand (read+write) MSHR misses
system.cpu0.dcache.demand_mshr_misses::total     12503021                       # number of demand (read+write) MSHR misses
system.cpu0.dcache.overall_mshr_misses::.cpu0.data     12503021                       # number of overall MSHR misses
system.cpu0.dcache.overall_mshr_misses::total     12503021                       # number of overall MSHR misses
system.cpu0.dcache.demand_mshr_miss_latency::.cpu0.data 563681204883                       # number of demand (read+write) MSHR miss cycles
system.cpu0.dcache.demand_mshr_miss_latency::total 563681204883                       # number of demand (read+write) MSHR miss cycles
system.cpu0.dcache.overall_mshr_miss_latency::.cpu0.data 563681204883                       # number of overall MSHR miss cycles
system.cpu0.dcache.overall_mshr_miss_latency::total 563681204883                       # number of overall MSHR miss cycles
system.cpu0.dcache.demand_mshr_miss_rate::.cpu0.data     0.020839                       # mshr miss rate for demand accesses
system.cpu0.dcache.demand_mshr_miss_rate::total     0.020839                       # mshr miss rate for demand accesses
system.cpu0.dcache.overall_mshr_miss_rate::.cpu0.data     0.020839                       # mshr miss rate for overall accesses
system.cpu0.dcache.overall_mshr_miss_rate::total     0.020839                       # mshr miss rate for overall accesses
system.cpu0.dcache.demand_avg_mshr_miss_latency::.cpu0.data 45083.600586                       # average overall mshr miss latency
system.cpu0.dcache.demand_avg_mshr_miss_latency::total 45083.600586                       # average overall mshr miss latency
system.cpu0.dcache.overall_avg_mshr_miss_latency::.cpu0.data 45083.600586                       # average overall mshr miss latency
system.cpu0.dcache.overall_avg_mshr_miss_latency::total 45083.600586                       # average overall mshr miss latency
system.cpu0.dcache.replacements              12503013                       # number of replacements
system.cpu0.dcache.ReadReq_hits::.cpu0.data    387490491                       # number of ReadReq hits
system.cpu0.dcache.ReadReq_hits::total      387490491                       # number of ReadReq hits
system.cpu0.dcache.ReadReq_misses::.cpu0.data     12501942                       # number of ReadReq misses
system.cpu0.dcache.ReadReq_misses::total     12501942                       # number of ReadReq misses
system.cpu0.dcache.ReadReq_miss_latency::.cpu0.data 571980211569                       # number of ReadReq miss cycles
system.cpu0.dcache.ReadReq_miss_latency::total 571980211569                       # number of ReadReq miss cycles
system.cpu0.dcache.ReadReq_accesses::.cpu0.data    399992433                       # number of ReadReq accesses(hits+misses)
system.cpu0.dcache.ReadReq_accesses::total    399992433                       # number of ReadReq accesses(hits+misses)
system.cpu0.dcache.ReadReq_miss_rate::.cpu0.data     0.031255                       # miss rate for ReadReq accesses
system.cpu0.dcache.ReadReq_miss_rate::total     0.031255                       # miss rate for ReadReq accesses
system.cpu0.dcache.ReadReq_avg_miss_latency::.cpu0.data 45751.309002                       # average ReadReq miss latency
system.cpu0.dcache.ReadReq_avg_miss_latency::total 45751.309002                       # average ReadReq miss latency
system.cpu0.dcache.ReadReq_mshr_misses::.cpu0.data     12501942                       # number of ReadReq MSHR misses
system.cpu0.dcache.ReadReq_mshr_misses::total     12501942                       # number of ReadReq MSHR misses
system.cpu0.dcache.ReadReq_mshr_miss_latency::.cpu0.data 563653918197                       # number of ReadReq MSHR miss cycles
system.cpu0.dcache.ReadReq_mshr_miss_latency::total 563653918197                       # number of ReadReq MSHR miss cycles
system.cpu0.dcache.ReadReq_mshr_miss_rate::.cpu0.data     0.031255                       # mshr miss rate for ReadReq accesses
system.cpu0.dcache.ReadReq_mshr_miss_rate::total     0.031255                       # mshr miss rate for ReadReq accesses
system.cpu0.dcache.ReadReq_avg_mshr_miss_latency::.cpu0.data 45085.309002                       # average ReadReq mshr miss latency
system.cpu0.dcache.ReadReq_avg_mshr_miss_latency::total 45085.309002                       # average ReadReq mshr miss latency
system.cpu0.dcache.WriteReq_hits::.cpu0.data    199996815                       # number of WriteReq hits
system.cpu0.dcache.WriteReq_hits::total     199996815                       # number of WriteReq hits
system.cpu0.dcache.WriteReq_misses::.cpu0.data         1079                       # number of WriteReq misses
system.cpu0.dcache.WriteReq_misses::total         1079                       # number of WriteReq misses
system.cpu0.dcache.WriteReq_miss_latency::.cpu0.data     28005300                       # number of WriteReq miss cycles
system.cpu0.dcache.WriteReq_miss_latency::total     28005300                       # number of WriteReq miss cycles
system.cpu0.dcache.WriteReq_accesses::.cpu0.data    199997894                       # number of WriteReq accesses(hits+misses)
system.cpu0.dcache.WriteReq_accesses::total    199997894                       # number of WriteReq accesses(hits+misses)
system.cpu0.dcache.WriteReq_miss_rate::.cpu0.data     0.000005                       # miss rate for WriteReq accesses
system.cpu0.dcache.WriteReq_miss_rate::total     0.000005                       # miss rate for WriteReq accesses
system.cpu0.dcache.WriteReq_avg_miss_latency::.cpu0.data 25954.865616                       # average WriteReq miss latency
system.cpu0.dcache.WriteReq_avg_miss_latency::total 25954.865616                       # average WriteReq miss latency
system.cpu0.dcache.WriteReq_mshr_misses::.cpu0.data         1079                       # number of WriteReq MSHR misses
system.cpu0.dcache.WriteReq_mshr_misses::total         1079                       # number of WriteReq MSHR misses
system.cpu0.dcache.WriteReq_mshr_miss_latency::.cpu0.data     27286686                       # number of WriteReq MSHR miss cycles
system.cpu0.dcache.WriteReq_mshr_miss_latency::total     27286686                       # number of WriteReq MSHR miss cycles
system.cpu0.dcache.WriteReq_mshr_miss_rate::.cpu0.data     0.000005                       # mshr miss rate for WriteReq accesses
system.cpu0.dcache.WriteReq_mshr_miss_rate::total     0.000005                       # mshr miss rate for WriteReq accesses
system.cpu0.dcache.WriteReq_avg_mshr_miss_latency::.cpu0.data 25288.865616                       # average WriteReq mshr miss latency
system.cpu0.dcache.WriteReq_avg_mshr_miss_latency::total 25288.865616                       # average WriteReq mshr miss latency
system.cpu0.dcache.tags.pwrStateResidencyTicks::UNDEFINED 1829114034021                       # Cumulative time (in ticks) in various power states
system.cpu0.dcache.tags.tagsinuse            7.999997                       # Cycle average of tags in use
system.cpu0.dcache.tags.total_refs          599990327                       # Total number of references to valid blocks.
system.cpu0.dcache.tags.sampled_refs         12503021                       # Sample count of references to valid blocks.
system.cpu0.dcache.tags.avg_refs            47.987629                       # Average number of references to valid blocks.
system.cpu0.dcache.tags.warmup_cycle           165168                       # Cycle when the warmup percentage was hit.
system.cpu0.dcache.tags.occ_blocks::.cpu0.data     7.999997                       # Average occupied blocks per requestor
system.cpu0.dcache.tags.occ_percent::.cpu0.data     1.000000                       # Average percentage of cache occupancy
system.cpu0.dcache.tags.occ_percent::total     1.000000                       # Average percentage of cache occupancy
system.cpu0.dcache.tags.occ_task_id_blocks::1024            8                       # Occupied blocks per task id
system.cpu0.dcache.tags.age_task_id_blocks_1024::0            7                       # Occupied blocks per task id
system.cpu0.dcache.tags.age_task_id_blocks_1024::4            1                       # Occupied blocks per task id
system.cpu0.dcache.tags.occ_task_id_percent::1024            1                       # Percentage of cache occupancy per task id
system.cpu0.dcache.tags.tag_accesses       4812425637                       # Number of tag accesses
system.cpu0.dcache.tags.data_accesses      4812425637                       # Number of data accesses
system.cpu0.dcache.tags.repl_invalid                0                       # Number of initial replacements
system.cpu0.dcache.tags.repl_valid_tag              0                       # Number of local replacements
system.cpu0.dcache.tags.repl_valid_data             0                       # Number of global replacements
system.cpu1.numPwrStateTransitions                  1                       # Number of power state transitions
system.cpu1.pwrStateResidencyTicks::ON   1829114034021                       # Cumulative time (in ticks) in various power states
system.cpu1.icache.pwrStateResidencyTicks::UNDEFINED 1829114034021                       # Cumulative time (in ticks) in various power states
system.cpu1.icache.demand_hits::.cpu1.inst        33129                       # number of demand (read+write) hits
system.cpu1.icache.demand_hits::total           33129                       # number of demand (read+write) hits
system.cpu1.icache.overall_hits::.cpu1.inst        33129                       # number of overall hits
system.cpu1.icache.overall_hits::total          33129                       # number of overall hits
system.cpu1.icache.demand_misses::.cpu1.inst          633                       # number of demand (read+write) misses
system.cpu1.icache.demand_misses::total           633                       # number of demand (read+write) misses
system.cpu1.icache.overall_misses::.cpu1.inst          633                       # number of overall misses
system.cpu1.icache.overall_misses::total          633                       # number of overall misses
system.cpu1.icache.demand_miss_latency::.cpu1.inst     52633980                       # number of demand (read+write) miss cycles
system.cpu1.icache.demand_miss_latency::total     52633980                       # number of demand (read+write) miss cycles
system.cpu1.icache.overall_miss_latency::.cpu1.inst     52633980                       # number of overall miss cycles
system.cpu1.icache.overall_miss_latency::total     52633980                       # number of overall miss cycles
system.cpu1.icache.demand_accesses::.cpu1.inst        33762                       # number of demand (read+write) accesses
system.cpu1.icache.demand_accesses::total        33762                       # number of demand (read+write) accesses
system.cpu1.icache.overall_accesses::.cpu1.inst        33762                       # number of overall (read+write) accesses
system.cpu1.icache.overall_accesses::total        33762                       # number of overall (read+write) accesses
system.cpu1.icache.demand_miss_rate::.cpu1.inst     0.018749                       # miss rate for demand accesses
system.cpu1.icache.demand_miss_rate::total     0.018749                       # miss rate for demand accesses
system.cpu1.icache.overall_miss_rate::.cpu1.inst     0.018749                       # miss rate for overall accesses
system.cpu1.icache.overall_miss_rate::total     0.018749                       # miss rate for overall accesses
system.cpu1.icache.demand_avg_miss_latency::.cpu1.inst 83150.047393                       # average overall miss latency
system.cpu1.icache.demand_avg_miss_latency::total 83150.047393                       # average overall miss latency
system.cpu1.icache.overall_avg_miss_latency::.cpu1.inst 83150.047393                       # average overall miss latency
system.cpu1.icache.overall_avg_miss_latency::total 83150.047393                       # average overall miss latency
system.cpu1.icache.blocked_cycles::no_mshrs            0                       # number of cycles access was blocked
system.cpu1.icache.blocked_cycles::no_targets            0                       # number of cycles access was blocked
system.cpu1.icache.blocked::no_mshrs                0                       # number of cycles access was blocked
system.cpu1.icache.blocked::no_targets              0                       # number of cycles access was blocked
system.cpu1.icache.avg_blocked_cycles::no_mshrs          nan                       # average number of cycles each access was blocked
system.cpu1.icache.avg_blocked_cycles::no_targets          nan                       # average number of cycles each access was blocked
system.cpu1.icache.writebacks::.writebacks          136                       # number of writebacks
system.cpu1.icache.writebacks::total              136                       # number of writebacks
system.cpu1.icache.demand_mshr_misses::.cpu1.inst          633                       # number of demand (read+write) MSHR misses
system.cpu1.icache.demand_mshr_misses::total          633                       # number of demand (read+write) MSHR misses
system.cpu1.icache.overall_mshr_misses::.cpu1.inst          633                       # number of overall MSHR misses
system.cpu1.icache.overall_mshr_misses::total          633                       # number of overall MSHR misses
system.cpu1.icache.demand_mshr_miss_latency::.cpu1.inst     52212402                       # number of demand (read+write) MSHR miss cycles
system.cpu1.icache.demand_mshr_miss_latency::total     52212402                       # number of demand (read+write) MSHR miss cycles
system.cpu1.icache.overall_mshr_miss_latency::.cpu1.inst     52212402                       # number of overall MSHR miss cycles
system.cpu1.icache.overall_mshr_miss_latency::total     52212402                       # number of overall MSHR miss cycles
system.cpu1.icache.demand_mshr_miss_rate::.cpu1.inst     0.018749                       # mshr miss rate for demand accesses
system.cpu1.icache.demand_mshr_miss_rate::total     0.018749                       # mshr miss rate for demand accesses
system.cpu1.icache.overall_mshr_miss_rate::.cpu1.inst     0.018749                       # mshr miss rate for overall accesses
system.cpu1.icache.overall_mshr_miss_rate::total     0.018749                       # mshr miss rate for overall accesses
system.cpu1.icache.demand_avg_mshr_miss_latency::.cpu1.inst 82484.047393                       # average overall mshr miss latency
system.cpu1.icache.demand_avg_mshr_miss_latency::total 82484.047393                       # average overall mshr miss latency
system.cpu1.icache.overall_avg_mshr_miss_latency::.cpu1.inst 82484.047393                       # average overall mshr miss latency
system.cpu1.icache.overall_avg_mshr_miss_latency::total 82484.047393                       # average overall mshr miss latency
system.cpu1.icache.replacements                   136                       # number of replacements
system.cpu1.icache.ReadReq_hits::.cpu1.inst        33129                       # number of ReadReq hits
system.cpu1.icache.ReadReq_hits::total          33129                       # number of ReadReq hits
system.cpu1.icache.ReadReq_misses::.cpu1.inst          633                       # number of ReadReq misses
system.cpu1.icache.ReadReq_misses::total          633                       # number of ReadReq misses
system.cpu1.icache.ReadReq_miss_latency::.cpu1.inst     52633980                       # number of ReadReq miss cycles
system.cpu1.icache.ReadReq_miss_latency::total     52633980                       # number of ReadReq miss cycles
system.cpu1.icache.ReadReq_accesses::.cpu1.inst        33762                       # number of ReadReq accesses(hits+misses)
system.cpu1.icache.ReadReq_accesses::total        33762                       # number of ReadReq accesses(hits+misses)
system.cpu1.icache.ReadReq_miss_rate::.cpu1.inst     0.018749                       # miss rate for ReadReq accesses
system.cpu1.icache.ReadReq_miss_rate::total     0.018749                       # miss rate for ReadReq accesses
system.cpu1.icache.ReadReq_avg_miss_latency::.cpu1.inst 83150.047393                       # average ReadReq miss latency
system.cpu1.icache.ReadReq_avg_miss_latency::total 83150.047393                       # average ReadReq miss latency
system.cpu1.icache.ReadReq_mshr_misses::.cpu1.inst          633                       # number of ReadReq MSHR misses
system.cpu1.icache.ReadReq_mshr_misses::total          633                       # number of ReadReq MSHR misses
system.cpu1.icache.ReadReq_mshr_miss_latency::.cpu1.inst     52212402                       # number of ReadReq MSHR miss cycles
system.cpu1.icache.ReadReq_mshr_miss_latency::total     52212402                       # number of ReadReq MSHR miss cycles
system.cpu1.icache.ReadReq_mshr_miss_rate::.cpu1.inst     0.018749                       # mshr miss rate for ReadReq accesses
system.cpu1.icache.ReadReq_mshr_miss_rate::total     0.018749                       # mshr miss rate for ReadReq accesses
system.cpu1.icache.ReadReq_avg_mshr_miss_latency::.cpu1.inst 82484.047393                       # average ReadReq mshr miss latency
system.cpu1.icache.ReadReq_avg_mshr_miss_latency::total 82484.047393                       # average ReadReq mshr miss latency
system.cpu1.icache.tags.pwrStateResidencyTicks::UNDEFINED 1829114034021                       # Cumulative time (in ticks) in various power states
system.cpu1.icache.tags.tagsinuse          496.987384                       # Cycle average of tags in use
system.cpu1.icache.tags.total_refs              33762                       # Total number of references to valid blocks.
system.cpu1.icache.tags.sampled_refs              633                       # Sample count of references to valid blocks.
system.cpu1.icache.tags.avg_refs            53.336493                       # Average number of references to valid blocks.
system.cpu1.icache.tags.warmup_cycle            88245                       # Cycle when the warmup percentage was hit.
system.cpu1.icache.tags.occ_blocks::.cpu1.inst   496.987384                       # Average occupied blocks per requestor
system.cpu1.icache.tags.occ_percent::.cpu1.inst     0.970678                       # Average percentage of cache occupancy
system.cpu1.icache.tags.occ_percent::total     0.970678                       # Average percentage of cache occupancy
system.cpu1.icache.tags.occ_task_id_blocks::1024          497                       # Occupied blocks per task id
system.cpu1.icache.tags.age_task_id_blocks_1024::4          497                       # Occupied blocks per task id
system.cpu1.icache.tags.occ_task_id_percent::1024     0.970703                       # Percentage of cache occupancy per task id
system.cpu1.icache.tags.tag_accesses           270729                       # Number of tag accesses
system.cpu1.icache.tags.data_accesses          270729                       # Number of data accesses
system.cpu1.icache.tags.repl_invalid                0                       # Number of initial replacements
system.cpu1.icache.tags.repl_valid_tag              0                       # Number of local replacements
system.cpu1.icache.tags.repl_valid_data             0                       # Number of global replacements
system.cpu1.dtb.walker.pwrStateResidencyTicks::UNDEFINED 1829114034021                       # Cumulative time (in ticks) in various power states
system.cpu1.interrupts.clk_domain.clock          5328                       # Clock period in ticks
system.cpu1.itb_walker_cache.pwrStateResidencyTicks::UNDEFINED 1829114034021                       # Cumulative time (in ticks) in various power states
system.cpu1.itb_walker_cache.blocked_cycles::no_mshrs            0                       # number of cycles access was blocked
system.cpu1.itb_walker_cache.blocked_cycles::no_targets            0                       # number of cycles access was blocked
system.cpu1.itb_walker_cache.blocked::no_mshrs            0                       # number of cycles access was blocked
system.cpu1.itb_walker_cache.blocked::no_targets            0                       # number of cycles access was blocked
system.cpu1.itb_walker_cache.avg_blocked_cycles::no_mshrs          nan                       # average number of cycles each access was blocked
system.cpu1.itb_walker_cache.avg_blocked_cycles::no_targets          nan                       # average number of cycles each access was blocked
system.cpu1.itb_walker_cache.replacements            0                       # number of replacements
system.cpu1.itb_walker_cache.tags.pwrStateResidencyTicks::UNDEFINED 1829114034021                       # Cumulative time (in ticks) in various power states
system.cpu1.itb_walker_cache.tags.tagsinuse            0                       # Cycle average of tags in use
system.cpu1.itb_walker_cache.tags.total_refs            0                       # Total number of references to valid blocks.
system.cpu1.itb_walker_cache.tags.sampled_refs            0                       # Sample count of references to valid blocks.
system.cpu1.itb_walker_cache.tags.avg_refs          nan                       # Average number of references to valid blocks.
system.cpu1.itb_walker_cache.tags.warmup_cycle            0                       # Cycle when the warmup percentage was hit.
system.cpu1.itb_walker_cache.tags.tag_accesses            0                       # Number of tag accesses
system.cpu1.itb_walker_cache.tags.data_accesses            0                       # Number of data accesses
system.cpu1.itb_walker_cache.tags.repl_invalid            0                       # Number of initial replacements
system.cpu1.itb_walker_cache.tags.repl_valid_tag            0                       # Number of local replacements
system.cpu1.itb_walker_cache.tags.repl_valid_data            0                       # Number of global replacements
system.cpu1.itb.walker.pwrStateResidencyTicks::UNDEFINED 1829114034021                       # Cumulative time (in ticks) in various power states
system.cpu1.dtb_walker_cache.pwrStateResidencyTicks::UNDEFINED 1829114034021                       # Cumulative time (in ticks) in various power states
system.cpu1.dtb_walker_cache.blocked_cycles::no_mshrs            0                       # number of cycles access was blocked
system.cpu1.dtb_walker_cache.blocked_cycles::no_targets            0                       # number of cycles access was blocked
system.cpu1.dtb_walker_cache.blocked::no_mshrs            0                       # number of cycles access was blocked
system.cpu1.dtb_walker_cache.blocked::no_targets            0                       # number of cycles access was blocked
system.cpu1.dtb_walker_cache.avg_blocked_cycles::no_mshrs          nan                       # average number of cycles each access was blocked
system.cpu1.dtb_walker_cache.avg_blocked_cycles::no_targets          nan                       # average number of cycles each access was blocked
system.cpu1.dtb_walker_cache.replacements            0                       # number of replacements
system.cpu1.dtb_walker_cache.tags.pwrStateResidencyTicks::UNDEFINED 1829114034021                       # Cumulative time (in ticks) in various power states
system.cpu1.dtb_walker_cache.tags.tagsinuse            0                       # Cycle average of tags in use
system.cpu1.dtb_walker_cache.tags.total_refs            0                       # Total number of references to valid blocks.
system.cpu1.dtb_walker_cache.tags.sampled_refs            0                       # Sample count of references to valid blocks.
system.cpu1.dtb_walker_cache.tags.avg_refs          nan                       # Average number of references to valid blocks.
system.cpu1.dtb_walker_cache.tags.warmup_cycle            0                       # Cycle when the warmup percentage was hit.
system.cpu1.dtb_walker_cache.tags.tag_accesses            0                       # Number of tag accesses
system.cpu1.dtb_walker_cache.tags.data_accesses            0                       # Number of data accesses
system.cpu1.dtb_walker_cache.tags.repl_invalid            0                       # Number of initial replacements
system.cpu1.dtb_walker_cache.tags.repl_valid_tag            0                       # Number of local replacements
system.cpu1.dtb_walker_cache.tags.repl_valid_data            0                       # Number of global replacements
system.cpu1.dcache.pwrStateResidencyTicks::UNDEFINED 1829114034021                       # Cumulative time (in ticks) in various power states
system.cpu1.dcache.demand_hits::.cpu1.data         5905                       # number of demand (read+write) hits
system.cpu1.dcache.demand_hits::total            5905                       # number of demand (read+write) hits
system.cpu1.dcache.overall_hits::.cpu1.data         5905                       # number of overall hits
system.cpu1.dcache.overall_hits::total           5905                       # number of overall hits
system.cpu1.dcache.demand_misses::.cpu1.data         1158                       # number of demand (read+write) misses
system.cpu1.dcache.demand_misses::total          1158                       # number of demand (read+write) misses
system.cpu1.dcache.overall_misses::.cpu1.data         1158                       # number of overall misses
system.cpu1.dcache.overall_misses::total         1158                       # number of overall misses
system.cpu1.dcache.demand_miss_latency::.cpu1.data     40359600                       # number of demand (read+write) miss cycles
system.cpu1.dcache.demand_miss_latency::total     40359600                       # number of demand (read+write) miss cycles
system.cpu1.dcache.overall_miss_latency::.cpu1.data     40359600                       # number of overall miss cycles
system.cpu1.dcache.overall_miss_latency::total     40359600                       # number of overall miss cycles
system.cpu1.dcache.demand_accesses::.cpu1.data         7063                       # number of demand (read+write) accesses
system.cpu1.dcache.demand_accesses::total         7063                       # number of demand (read+write) accesses
system.cpu1.dcache.overall_accesses::.cpu1.data         7063                       # number of overall (read+write) accesses
system.cpu1.dcache.overall_accesses::total         7063                       # number of overall (read+write) accesses
system.cpu1.dcache.demand_miss_rate::.cpu1.data     0.163953                       # miss rate for demand accesses
system.cpu1.dcache.demand_miss_rate::total     0.163953                       # miss rate for demand accesses
system.cpu1.dcache.overall_miss_rate::.cpu1.data     0.163953                       # miss rate for overall accesses
system.cpu1.dcache.overall_miss_rate::total     0.163953                       # miss rate for overall accesses
system.cpu1.dcache.demand_avg_miss_latency::.cpu1.data 34852.849741                       # average overall miss latency
system.cpu1.dcache.demand_avg_miss_latency::total 34852.849741                       # average overall miss latency
system.cpu1.dcache.overall_avg_miss_latency::.cpu1.data 34852.849741                       # average overall miss latency
system.cpu1.dcache.overall_avg_miss_latency::total 34852.849741                       # average overall miss latency
system.cpu1.dcache.blocked_cycles::no_mshrs            0                       # number of cycles access was blocked
system.cpu1.dcache.blocked_cycles::no_targets            0                       # number of cycles access was blocked
system.cpu1.dcache.blocked::no_mshrs                0                       # number of cycles access was blocked
system.cpu1.dcache.blocked::no_targets              0                       # number of cycles access was blocked
system.cpu1.dcache.avg_blocked_cycles::no_mshrs          nan                       # average number of cycles each access was blocked
system.cpu1.dcache.avg_blocked_cycles::no_targets          nan                       # average number of cycles each access was blocked
system.cpu1.dcache.writebacks::.writebacks          920                       # number of writebacks
system.cpu1.dcache.writebacks::total              920                       # number of writebacks
system.cpu1.dcache.demand_mshr_misses::.cpu1.data         1158                       # number of demand (read+write) MSHR misses
system.cpu1.dcache.demand_mshr_misses::total         1158                       # number of demand (read+write) MSHR misses
system.cpu1.dcache.overall_mshr_misses::.cpu1.data         1158                       # number of overall MSHR misses
system.cpu1.dcache.overall_mshr_misses::total         1158                       # number of overall MSHR misses
system.cpu1.dcache.demand_mshr_miss_latency::.cpu1.data     39588372                       # number of demand (read+write) MSHR miss cycles
system.cpu1.dcache.demand_mshr_miss_latency::total     39588372                       # number of demand (read+write) MSHR miss cycles
system.cpu1.dcache.overall_mshr_miss_latency::.cpu1.data     39588372                       # number of overall MSHR miss cycles
system.cpu1.dcache.overall_mshr_miss_latency::total     39588372                       # number of overall MSHR miss cycles
system.cpu1.dcache.demand_mshr_miss_rate::.cpu1.data     0.163953                       # mshr miss rate for demand accesses
system.cpu1.dcache.demand_mshr_miss_rate::total     0.163953                       # mshr miss rate for demand accesses
system.cpu1.dcache.overall_mshr_miss_rate::.cpu1.data     0.163953                       # mshr miss rate for overall accesses
system.cpu1.dcache.overall_mshr_miss_rate::total     0.163953                       # mshr miss rate for overall accesses
system.cpu1.dcache.demand_avg_mshr_miss_latency::.cpu1.data 34186.849741                       # average overall mshr miss latency
system.cpu1.dcache.demand_avg_mshr_miss_latency::total 34186.849741                       # average overall mshr miss latency
system.cpu1.dcache.overall_avg_mshr_miss_latency::.cpu1.data 34186.849741                       # average overall mshr miss latency
system.cpu1.dcache.overall_avg_mshr_miss_latency::total 34186.849741                       # average overall mshr miss latency
system.cpu1.dcache.replacements                  1150                       # number of replacements
system.cpu1.dcache.ReadReq_hits::.cpu1.data         3014                       # number of ReadReq hits
system.cpu1.dcache.ReadReq_hits::total           3014                       # number of ReadReq hits
system.cpu1.dcache.ReadReq_misses::.cpu1.data          712                       # number of ReadReq misses
system.cpu1.dcache.ReadReq_misses::total          712                       # number of ReadReq misses
system.cpu1.dcache.ReadReq_miss_latency::.cpu1.data     17018298                       # number of ReadReq miss cycles
system.cpu1.dcache.ReadReq_miss_latency::total     17018298                       # number of ReadReq miss cycles
system.cpu1.dcache.ReadReq_accesses::.cpu1.data         3726                       # number of ReadReq accesses(hits+misses)
system.cpu1.dcache.ReadReq_accesses::total         3726                       # number of ReadReq accesses(hits+misses)
system.cpu1.dcache.ReadReq_miss_rate::.cpu1.data     0.191090                       # miss rate for ReadReq accesses
system.cpu1.dcache.ReadReq_miss_rate::total     0.191090                       # miss rate for ReadReq accesses
system.cpu1.dcache.ReadReq_avg_miss_latency::.cpu1.data 23902.103933                       # average ReadReq miss latency
system.cpu1.dcache.ReadReq_avg_miss_latency::total 23902.103933                       # average ReadReq miss latency
system.cpu1.dcache.ReadReq_mshr_misses::.cpu1.data          712                       # number of ReadReq MSHR misses
system.cpu1.dcache.ReadReq_mshr_misses::total          712                       # number of ReadReq MSHR misses
system.cpu1.dcache.ReadReq_mshr_miss_latency::.cpu1.data     16544106                       # number of ReadReq MSHR miss cycles
system.cpu1.dcache.ReadReq_mshr_miss_latency::total     16544106                       # number of ReadReq MSHR miss cycles
system.cpu1.dcache.ReadReq_mshr_miss_rate::.cpu1.data     0.191090                       # mshr miss rate for ReadReq accesses
system.cpu1.dcache.ReadReq_mshr_miss_rate::total     0.191090                       # mshr miss rate for ReadReq accesses
system.cpu1.dcache.ReadReq_avg_mshr_miss_latency::.cpu1.data 23236.103933                       # average ReadReq mshr miss latency
system.cpu1.dcache.ReadReq_avg_mshr_miss_latency::total 23236.103933                       # average ReadReq mshr miss latency
system.cpu1.dcache.WriteReq_hits::.cpu1.data         2891                       # number of WriteReq hits
system.cpu1.dcache.WriteReq_hits::total          2891                       # number of WriteReq hits
system.cpu1.dcache.WriteReq_misses::.cpu1.data          446                       # number of WriteReq misses
system.cpu1.dcache.WriteReq_misses::total          446                       # number of WriteReq misses
[...]
system.mem_ctrls.wrQLenPdf::114                     0                       # What write queue length does an incoming req see
system.mem_ctrls.wrQLenPdf::115                     0                       # What write queue length does an incoming req see
system.mem_ctrls.wrQLenPdf::116                     0                       # What write queue length does an incoming req see
system.mem_ctrls.wrQLenPdf::117                     0                       # What write queue length does an incoming req see
system.mem_ctrls.wrQLenPdf::118                     0                       # What write queue length does an incoming req see
system.mem_ctrls.wrQLenPdf::119                     0                       # What write queue length does an incoming req see
system.mem_ctrls.wrQLenPdf::120                     0                       # What write queue length does an incoming req see
system.mem_ctrls.wrQLenPdf::121                     0                       # What write queue length does an incoming req see
system.mem_ctrls.wrQLenPdf::122                     0                       # What write queue length does an incoming req see
system.mem_ctrls.wrQLenPdf::123                     0                       # What write queue length does an incoming req see
system.mem_ctrls.wrQLenPdf::124                     0                       # What write queue length does an incoming req see
system.mem_ctrls.wrQLenPdf::125                     0                       # What write queue length does an incoming req see
system.mem_ctrls.wrQLenPdf::126                     0                       # What write queue length does an incoming req see
system.mem_ctrls.wrQLenPdf::127                     0                       # What write queue length does an incoming req see
system.mem_ctrls.bytesPerActivate::samples      5843012                       # Bytes accessed per row activation
system.mem_ctrls.bytesPerActivate::mean            64                       # Bytes accessed per row activation
system.mem_ctrls.bytesPerActivate::gmean    64.000000                       # Bytes accessed per row activation
system.mem_ctrls.bytesPerActivate::64-71      5843012    100.00%    100.00% # Bytes accessed per row activation
system.mem_ctrls.bytesPerActivate::total      5843012                       # Bytes accessed per row activation
system.mem_ctrls.rdPerTurnAround::samples           21                       # Reads before turning the bus around for writes
system.mem_ctrls.rdPerTurnAround::mean   49966.142857                       # Reads before turning the bus around for writes
system.mem_ctrls.rdPerTurnAround::gmean  31537.499467                       # Reads before turning the bus around for writes
system.mem_ctrls.rdPerTurnAround::stdev  66132.506916                       # Reads before turning the bus around for writes
system.mem_ctrls.rdPerTurnAround::8192-16383            5     23.81%     23.81% # Reads before turning the bus around for writes
system.mem_ctrls.rdPerTurnAround::16384-24575            6     28.57%     52.38% # Reads before turning the bus around for writes
system.mem_ctrls.rdPerTurnAround::24576-32767            1      4.76%     57.14% # Reads before turning the bus around for writes
system.mem_ctrls.rdPerTurnAround::32768-40959            4     19.05%     76.19% # Reads before turning the bus around for writes
system.mem_ctrls.rdPerTurnAround::57344-65535            2      9.52%     85.71% # Reads before turning the bus around for writes
system.mem_ctrls.rdPerTurnAround::114688-122879            1      4.76%     90.48% # Reads before turning the bus around for writes
system.mem_ctrls.rdPerTurnAround::139264-147455            1      4.76%     95.24% # Reads before turning the bus around for writes
system.mem_ctrls.rdPerTurnAround::294912-303103            1      4.76%    100.00% # Reads before turning the bus around for writes
system.mem_ctrls.rdPerTurnAround::total            21                       # Reads before turning the bus around for writes
system.mem_ctrls.wrPerTurnAround::samples           21                       # Writes before turning the bus around for reads
system.mem_ctrls.wrPerTurnAround::mean             18                       # Writes before turning the bus around for reads
system.mem_ctrls.wrPerTurnAround::gmean     18.000000                       # Writes before turning the bus around for reads
system.mem_ctrls.wrPerTurnAround::18               21    100.00%    100.00% # Writes before turning the bus around for reads
system.mem_ctrls.wrPerTurnAround::total            21                       # Writes before turning the bus around for reads
system.mem_ctrls.bytesReadDRAM              373928576                       # Total number of bytes read from DRAM
system.mem_ctrls.bytesReadWrQ                   19904                       # Total number of bytes read from write queue
system.mem_ctrls.bytesWritten                   24192                       # Total number of bytes written to DRAM
system.mem_ctrls.bytesReadSys               373948480                       # Total read bytes from the system interface side
system.mem_ctrls.bytesWrittenSys                46720                       # Total written bytes from the system interface side
system.mem_ctrls.avgRdBW                       204.43                       # Average DRAM read bandwidth in MiByte/s
system.mem_ctrls.avgWrBW                         0.01                       # Average achieved write bandwidth in MiByte/s
system.mem_ctrls.avgRdBWSys                    204.44                       # Average system read bandwidth in MiByte/s
system.mem_ctrls.avgWrBWSys                      0.03                       # Average system write bandwidth in MiByte/s
system.mem_ctrls.peakBW                      19207.00                       # Theoretical peak bandwidth in MiByte/s
system.mem_ctrls.busUtil                         1.06                       # Data bus utilization in percentage
system.mem_ctrls.busUtilRead                     1.06                       # Data bus utilization in percentage for reads
system.mem_ctrls.busUtilWrite                    0.00                       # Data bus utilization in percentage for writes
system.mem_ctrls.totGap                  1829113903485                       # Total gap between requests
system.mem_ctrls.avgGap                     313007.47                       # Average gap between requests
system.mem_ctrls.masterReadBytes::.cpu0.inst        28992                       # Per-master bytes read from memory
system.mem_ctrls.masterReadBytes::.cpu0.data    373834816                       # Per-master bytes read from memory
system.mem_ctrls.masterReadBytes::.cpu1.inst        40512                       # Per-master bytes read from memory
system.mem_ctrls.masterReadBytes::.cpu1.data        24256                       # Per-master bytes read from memory
system.mem_ctrls.masterWriteBytes::.writebacks        24192                       # Per-master bytes write to memory
system.mem_ctrls.masterReadRate::.cpu0.inst 15850.296624899847                       # Per-master bytes read from memory rate (Bytes/sec)
system.mem_ctrls.masterReadRate::.cpu0.data 204380267.739888787270                       # Per-master bytes read from memory rate (Bytes/sec)
system.mem_ctrls.masterReadRate::.cpu1.inst 22148.427734131576                       # Per-master bytes read from memory rate (Bytes/sec)
system.mem_ctrls.masterReadRate::.cpu1.data 13261.064946660137                       # Per-master bytes read from memory rate (Bytes/sec)
system.mem_ctrls.masterWriteRate::.writebacks 13226.075329386627                       # Per-master bytes write to memory rate (Bytes/sec)
system.mem_ctrls.masterReadAccesses::.cpu0.inst          453                       # Per-master read serviced memory accesses
system.mem_ctrls.masterReadAccesses::.cpu0.data      5841480                       # Per-master read serviced memory accesses
system.mem_ctrls.masterReadAccesses::.cpu1.inst          633                       # Per-master read serviced memory accesses
system.mem_ctrls.masterReadAccesses::.cpu1.data          379                       # Per-master read serviced memory accesses
system.mem_ctrls.masterWriteAccesses::.writebacks          730                       # Per-master write serviced memory accesses
system.mem_ctrls.masterReadTotalLat::.cpu0.inst     16987259                       # Per-master read total memory access latency
system.mem_ctrls.masterReadTotalLat::.cpu0.data 226792011350                       # Per-master read total memory access latency
system.mem_ctrls.masterReadTotalLat::.cpu1.inst     22427738                       # Per-master read total memory access latency
system.mem_ctrls.masterReadTotalLat::.cpu1.data     14299297                       # Per-master read total memory access latency
system.mem_ctrls.masterWriteTotalLat::.writebacks 10925517064640                       # Per-master write total memory access latency
system.mem_ctrls.masterReadAvgLat::.cpu0.inst     37499.47                       # Per-master read average memory access latency
system.mem_ctrls.masterReadAvgLat::.cpu0.data     38824.41                       # Per-master read average memory access latency
system.mem_ctrls.masterReadAvgLat::.cpu1.inst     35430.87                       # Per-master read average memory access latency
system.mem_ctrls.masterReadAvgLat::.cpu1.data     37729.02                       # Per-master read average memory access latency
system.mem_ctrls.masterWriteAvgLat::.writebacks 14966461732.38                       # Per-master write average memory access latency
system.mem_ctrls.pageHitRate                     0.00                       # Row buffer hit rate, read and write combined
system.mem_ctrls.rank1.actEnergy         4555033977.313791                       # Energy for activate commands per rank (pJ)
system.mem_ctrls.rank1.preEnergy         8041386906.090904                       # Energy for precharge commands per rank (pJ)
system.mem_ctrls.rank1.readEnergy        8011669561.823689                       # Energy for read commands per rank (pJ)
system.mem_ctrls.rank1.writeEnergy       445861.584000                       # Energy for write commands per rank (pJ)
system.mem_ctrls.rank1.refreshEnergy     158777392556.695648                       # Energy for refresh commands per rank (pJ)
system.mem_ctrls.rank1.actBackEnergy     81571574513.652161                       # Energy for active background per rank (pJ)
system.mem_ctrls.rank1.preBackEnergy     540709449495.980286                       # Energy for precharge background per rank (pJ)
system.mem_ctrls.rank1.actPowerDownEnergy            0                       # Energy for active power-down per rank (pJ)
system.mem_ctrls.rank1.prePowerDownEnergy            0                       # Energy for precharge power-down per rank (pJ)
system.mem_ctrls.rank1.selfRefreshEnergy            0                       # Energy for self refresh per rank (pJ)
system.mem_ctrls.rank1.totalEnergy       801666952872.850342                       # Total energy per rank (pJ)
system.mem_ctrls.rank1.averagePower        438.281560                       # Core power per rank (mW)
system.mem_ctrls.rank1.totalIdleTime                0                       # Total Idle time Per DRAM Rank
system.mem_ctrls.rank1.memoryStateTime::IDLE 1612062948558                       # Time in different power states
system.mem_ctrls.rank1.memoryStateTime::REF  82224800000                       # Time in different power states
system.mem_ctrls.rank1.memoryStateTime::SREF            0                       # Time in different power states
system.mem_ctrls.rank1.memoryStateTime::PRE_PDN            0                       # Time in different power states
system.mem_ctrls.rank1.memoryStateTime::ACT 134826285463                       # Time in different power states
system.mem_ctrls.rank1.memoryStateTime::ACT_PDN            0                       # Time in different power states
system.mem_ctrls.rank0.actEnergy         4556418703.201753                       # Energy for activate commands per rank (pJ)
system.mem_ctrls.rank0.preEnergy         8043831479.870032                       # Energy for precharge commands per rank (pJ)
system.mem_ctrls.rank0.readEnergy        8014105259.154906                       # Energy for read commands per rank (pJ)
system.mem_ctrls.rank0.writeEnergy       445861.584000                       # Energy for write commands per rank (pJ)
system.mem_ctrls.rank0.refreshEnergy     158777392556.695648                       # Energy for refresh commands per rank (pJ)
system.mem_ctrls.rank0.actBackEnergy     81585160107.240860                       # Energy for active background per rank (pJ)
system.mem_ctrls.rank0.preBackEnergy     540700070609.027161                       # Energy for precharge background per rank (pJ)
system.mem_ctrls.rank0.actPowerDownEnergy            0                       # Energy for active power-down per rank (pJ)
system.mem_ctrls.rank0.prePowerDownEnergy            0                       # Energy for precharge power-down per rank (pJ)
system.mem_ctrls.rank0.selfRefreshEnergy            0                       # Energy for self refresh per rank (pJ)
system.mem_ctrls.rank0.totalEnergy       801677424576.500488                       # Total energy per rank (pJ)
system.mem_ctrls.rank0.averagePower        438.287285                       # Core power per rank (mW)
system.mem_ctrls.rank0.totalIdleTime                0                       # Total Idle time Per DRAM Rank
system.mem_ctrls.rank0.memoryStateTime::IDLE 1612023057021                       # Time in different power states
system.mem_ctrls.rank0.memoryStateTime::REF  82224800000                       # Time in different power states
system.mem_ctrls.rank0.memoryStateTime::SREF            0                       # Time in different power states
system.mem_ctrls.rank0.memoryStateTime::PRE_PDN            0                       # Time in different power states
system.mem_ctrls.rank0.memoryStateTime::ACT 134866177000                       # Time in different power states
system.mem_ctrls.rank0.memoryStateTime::ACT_PDN            0                       # Time in different power states
system.cpu_clk_domain.clock                       333                       # Clock period in ticks
system.tol2bus.pwrStateResidencyTicks::UNDEFINED 1829114034021                       # Cumulative time (in ticks) in various power states
system.tol2bus.trans_dist::ReadResp          12503740                       # Transaction distribution
system.tol2bus.trans_dist::WritebackDirty         3768                       # Transaction distribution
system.tol2bus.trans_dist::WritebackClean          176                       # Transaction distribution
system.tol2bus.trans_dist::CleanEvict        18081225                       # Transaction distribution
system.tol2bus.trans_dist::ReadExReq             1525                       # Transaction distribution
system.tol2bus.trans_dist::ReadExResp            1525                       # Transaction distribution
system.tol2bus.trans_dist::ReadCleanReq          1086                       # Transaction distribution
system.tol2bus.trans_dist::ReadSharedReq     12502654                       # Transaction distribution
system.tol2bus.pkt_count_system.cpu0.icache.mem_side::system.l2.cpu_side          946                       # Packet count per connected master and slave (bytes)
system.tol2bus.pkt_count_system.cpu0.dcache.mem_side::system.l2.cpu_side     37509055                       # Packet count per connected master and slave (bytes)
system.tol2bus.pkt_count_system.cpu1.icache.mem_side::system.l2.cpu_side         1402                       # Packet count per connected master and slave (bytes)
system.tol2bus.pkt_count_system.cpu1.dcache.mem_side::system.l2.cpu_side         3466                       # Packet count per connected master and slave (bytes)
system.tol2bus.pkt_count::total              37514869                       # Packet count per connected master and slave (bytes)
system.tol2bus.pkt_size_system.cpu0.icache.mem_side::system.l2.cpu_side        31552                       # Cumulative packet size per connected master and slave (bytes)
system.tol2bus.pkt_size_system.cpu0.dcache.mem_side::system.l2.cpu_side    800328896                       # Cumulative packet size per connected master and slave (bytes)
system.tol2bus.pkt_size_system.cpu1.icache.mem_side::system.l2.cpu_side        49216                       # Cumulative packet size per connected master and slave (bytes)
system.tol2bus.pkt_size_system.cpu1.dcache.mem_side::system.l2.cpu_side       132992                       # Cumulative packet size per connected master and slave (bytes)
system.tol2bus.pkt_size::total              800542656                       # Cumulative packet size per connected master and slave (bytes)
system.tol2bus.snoops                         5580830                       # Total snoops (count)
system.tol2bus.snoopTraffic                     46720                       # Total snoop traffic (bytes)
system.tol2bus.snoop_fanout::samples         18086095                       # Request fanout histogram
system.tol2bus.snoop_fanout::mean            0.000052                       # Request fanout histogram
system.tol2bus.snoop_fanout::stdev           0.007240                       # Request fanout histogram
system.tol2bus.snoop_fanout::underflows             0      0.00%      0.00% # Request fanout histogram
system.tol2bus.snoop_fanout::0               18085147     99.99%     99.99% # Request fanout histogram
system.tol2bus.snoop_fanout::1                    948      0.01%    100.00% # Request fanout histogram
system.tol2bus.snoop_fanout::2                      0      0.00%    100.00% # Request fanout histogram
system.tol2bus.snoop_fanout::3                      0      0.00%    100.00% # Request fanout histogram
system.tol2bus.snoop_fanout::4                      0      0.00%    100.00% # Request fanout histogram
system.tol2bus.snoop_fanout::5                      0      0.00%    100.00% # Request fanout histogram
system.tol2bus.snoop_fanout::6                      0      0.00%    100.00% # Request fanout histogram
system.tol2bus.snoop_fanout::7                      0      0.00%    100.00% # Request fanout histogram
system.tol2bus.snoop_fanout::8                      0      0.00%    100.00% # Request fanout histogram
system.tol2bus.snoop_fanout::overflows              0      0.00%    100.00% # Request fanout histogram
system.tol2bus.snoop_fanout::min_value              0                       # Request fanout histogram
system.tol2bus.snoop_fanout::max_value              1                       # Request fanout histogram
system.tol2bus.snoop_fanout::total           18086095                       # Request fanout histogram
system.tol2bus.reqLayer0.occupancy         8330338656                       # Layer occupancy (ticks)
system.tol2bus.reqLayer0.utilization              0.5                       # Layer utilization (%)
system.tol2bus.respLayer5.occupancy           1156842                       # Layer occupancy (ticks)
system.tol2bus.respLayer5.utilization             0.0                       # Layer utilization (%)
system.tol2bus.respLayer4.occupancy            632699                       # Layer occupancy (ticks)
system.tol2bus.respLayer4.utilization             0.0                       # Layer utilization (%)
system.tol2bus.respLayer1.occupancy       12490517979                       # Layer occupancy (ticks)
system.tol2bus.respLayer1.utilization             0.7                       # Layer utilization (%)
system.tol2bus.respLayer0.occupancy            452547                       # Layer occupancy (ticks)
system.tol2bus.respLayer0.utilization             0.0                       # Layer utilization (%)

---------- End Simulation Statistics   ----------
