
---------- Begin Simulation Statistics ----------
sim_seconds                                  2.109752                       # Number of seconds simulated
sim_ticks                                2109752093500                       # Number of ticks simulated
final_tick                               2109752093500                       # Number of ticks from beginning of simulation (restored from checkpoints and never reset)
sim_freq                                 1000000000000                       # Frequency of simulated ticks
host_inst_rate                                 500628                       # Simulator instruction rate (inst/s)
host_op_rate                                   741965                       # Simulator op (including micro ops) rate (op/s)
host_tick_rate                             1027643749                       # Simulator tick rate (ticks/s)
host_mem_usage                                8584512                       # Number of bytes of host memory used
host_seconds                                  2053.00                       # Real time elapsed on the host
sim_insts                                  1027788477                       # Number of instructions simulated
sim_ops                                    1523253676                       # Number of ops (including micro ops) simulated
system.voltage_domain.voltage                       1                       # Voltage in Volts
system.clk_domain.clock                          1000                       # Clock period in ticks
system.mem_ctrls.pwrStateResidencyTicks::UNDEFINED 2109752093500                       # Cumulative time (in ticks) in various power states
system.mem_ctrls.bytes_read::.cpu0.inst         29248                       # Number of bytes read from this memory
system.mem_ctrls.bytes_read::.cpu0.data      22239104                       # Number of bytes read from this memory
system.mem_ctrls.bytes_read::.cpu1.inst         60800                       # Number of bytes read from this memory
system.mem_ctrls.bytes_read::.cpu1.data      51406336                       # Number of bytes read from this memory
system.mem_ctrls.bytes_read::total           73735488                       # Number of bytes read from this memory
system.mem_ctrls.bytes_inst_read::.cpu0.inst        29248                       # Number of instructions bytes read from this memory
system.mem_ctrls.bytes_inst_read::.cpu1.inst        60800                       # Number of instructions bytes read from this memory
system.mem_ctrls.bytes_inst_read::total         90048                       # Number of instructions bytes read from this memory
system.mem_ctrls.bytes_written::.writebacks     42974016                       # Number of bytes written to this memory
system.mem_ctrls.bytes_written::total        42974016                       # Number of bytes written to this memory
system.mem_ctrls.num_reads::.cpu0.inst            457                       # Number of read requests responded to by this memory
system.mem_ctrls.num_reads::.cpu0.data         347486                       # Number of read requests responded to by this memory
system.mem_ctrls.num_reads::.cpu1.inst            950                       # Number of read requests responded to by this memory
system.mem_ctrls.num_reads::.cpu1.data         803224                       # Number of read requests responded to by this memory
system.mem_ctrls.num_reads::total             1152117                       # Number of read requests responded to by this memory
system.mem_ctrls.num_writes::.writebacks       671469                       # Number of write requests responded to by this memory
system.mem_ctrls.num_writes::total             671469                       # Number of write requests responded to by this memory
system.mem_ctrls.bw_read::.cpu0.inst            13863                       # Total read bandwidth from this memory (bytes/s)
system.mem_ctrls.bw_read::.cpu0.data         10541098                       # Total read bandwidth from this memory (bytes/s)
system.mem_ctrls.bw_read::.cpu1.inst            28819                       # Total read bandwidth from this memory (bytes/s)
system.mem_ctrls.bw_read::.cpu1.data         24366055                       # Total read bandwidth from this memory (bytes/s)
system.mem_ctrls.bw_read::total              34949835                       # Total read bandwidth from this memory (bytes/s)
system.mem_ctrls.bw_inst_read::.cpu0.inst        13863                       # Instruction read bandwidth from this memory (bytes/s)
system.mem_ctrls.bw_inst_read::.cpu1.inst        28819                       # Instruction read bandwidth from this memory (bytes/s)
system.mem_ctrls.bw_inst_read::total            42682                       # Instruction read bandwidth from this memory (bytes/s)
system.mem_ctrls.bw_write::.writebacks       20369225                       # Write bandwidth from this memory (bytes/s)
system.mem_ctrls.bw_write::total             20369225                       # Write bandwidth from this memory (bytes/s)
system.mem_ctrls.bw_total::.writebacks       20369225                       # Total bandwidth to/from this memory (bytes/s)
system.mem_ctrls.bw_total::.cpu0.inst           13863                       # Total bandwidth to/from this memory (bytes/s)
system.mem_ctrls.bw_total::.cpu0.data        10541098                       # Total bandwidth to/from this memory (bytes/s)
system.mem_ctrls.bw_total::.cpu1.inst           28819                       # Total bandwidth to/from this memory (bytes/s)
system.mem_ctrls.bw_total::.cpu1.data        24366055                       # Total bandwidth to/from this memory (bytes/s)
system.mem_ctrls.bw_total::total             55319061                       # Total bandwidth to/from this memory (bytes/s)
system.mem_ctrls.avgPriority_.writebacks::samples    671469.00                       # Average QoS priority value for accepted requests
system.mem_ctrls.avgPriority_.cpu0.inst::samples       457.00                       # Average QoS priority value for accepted requests
system.mem_ctrls.avgPriority_.cpu0.data::samples    347486.00                       # Average QoS priority value for accepted requests
system.mem_ctrls.avgPriority_.cpu1.inst::samples       950.00                       # Average QoS priority value for accepted requests
system.mem_ctrls.avgPriority_.cpu1.data::samples    802636.00                       # Average QoS priority value for accepted requests
system.mem_ctrls.priorityMinLatency      0.000000017492                       # per QoS priority minimum request to response latency (s)
system.mem_ctrls.priorityMaxLatency      0.067159077652                       # per QoS priority maximum request to response latency (s)
system.mem_ctrls.numReadWriteTurnArounds        40141                       # Number of turnarounds from READ to WRITE
system.mem_ctrls.numWriteReadTurnArounds        40141                       # Number of turnarounds from WRITE to READ
system.mem_ctrls.numStayReadState             3174299                       # Number of times bus staying in READ state
system.mem_ctrls.numStayWriteState             636207                       # Number of times bus staying in WRITE state
system.mem_ctrls.readReqs                     1152117                       # Number of read requests accepted
system.mem_ctrls.writeReqs                     671469                       # Number of write requests accepted
system.mem_ctrls.readBursts                   1152117                       # Number of DRAM read bursts, including those serviced by the write queue
system.mem_ctrls.writeBursts                   671469                       # Number of DRAM write bursts, including those merged in the write queue
system.mem_ctrls.bytesReadDRAM               73697856                       # Total number of bytes read from DRAM
system.mem_ctrls.bytesReadWrQ                   37632                       # Total number of bytes read from write queue
system.mem_ctrls.bytesWritten                42969920                       # Total number of bytes written to DRAM
system.mem_ctrls.bytesReadSys                73735488                       # Total read bytes from the system interface side
system.mem_ctrls.bytesWrittenSys             42974016                       # Total written bytes from the system interface side
system.mem_ctrls.servicedByWrQ                    588                       # Number of DRAM read bursts serviced by the write queue
system.mem_ctrls.mergedWrBursts                     0                       # Number of DRAM write bursts merged with an existing one
system.mem_ctrls.neitherReadNorWriteReqs            0                       # Number of requests that are neither read nor write
system.mem_ctrls.perBankRdBursts::0             36832                       # Per bank write bursts
system.mem_ctrls.perBankRdBursts::1             36152                       # Per bank write bursts
system.mem_ctrls.perBankRdBursts::2             36089                       # Per bank write bursts
system.mem_ctrls.perBankRdBursts::3             36112                       # Per bank write bursts
system.mem_ctrls.perBankRdBursts::4             35999                       # Per bank write bursts
system.mem_ctrls.perBankRdBursts::5             35971                       # Per bank write bursts
system.mem_ctrls.perBankRdBursts::6             35903                       # Per bank write bursts
system.mem_ctrls.perBankRdBursts::7             35959                       # Per bank write bursts
system.mem_ctrls.perBankRdBursts::8             35914                       # Per bank write bursts
system.mem_ctrls.perBankRdBursts::9             35822                       # Per bank write bursts
system.mem_ctrls.perBankRdBursts::10            35846                       # Per bank write bursts
system.mem_ctrls.perBankRdBursts::11            35970                       # Per bank write bursts
system.mem_ctrls.perBankRdBursts::12            35880                       # Per bank write bursts
system.mem_ctrls.perBankRdBursts::13            35980                       # Per bank write bursts
system.mem_ctrls.perBankRdBursts::14            36073                       # Per bank write bursts
system.mem_ctrls.perBankRdBursts::15            36110                       # Per bank write bursts
system.mem_ctrls.perBankRdBursts::16            36228                       # Per bank write bursts
system.mem_ctrls.perBankRdBursts::17            35980                       # Per bank write bursts
system.mem_ctrls.perBankRdBursts::18            36044                       # Per bank write bursts
system.mem_ctrls.perBankRdBursts::19            36049                       # Per bank write bursts
system.mem_ctrls.perBankRdBursts::20            35971                       # Per bank write bursts
system.mem_ctrls.perBankRdBursts::21            35958                       # Per bank write bursts
system.mem_ctrls.perBankRdBursts::22            35927                       # Per bank write bursts
system.mem_ctrls.perBankRdBursts::23            35923                       # Per bank write bursts
system.mem_ctrls.perBankRdBursts::24            35940                       # Per bank write bursts
system.mem_ctrls.perBankRdBursts::25            35915                       # Per bank write bursts
system.mem_ctrls.perBankRdBursts::26            35836                       # Per bank write bursts
system.mem_ctrls.perBankRdBursts::27            35848                       # Per bank write bursts
system.mem_ctrls.perBankRdBursts::28            35781                       # Per bank write bursts
system.mem_ctrls.perBankRdBursts::29            35814                       # Per bank write bursts
system.mem_ctrls.perBankRdBursts::30            35774                       # Per bank write bursts
system.mem_ctrls.perBankRdBursts::31            35929                       # Per bank write bursts
system.mem_ctrls.perBankWrBursts::0             21379                       # Per bank write bursts
system.mem_ctrls.perBankWrBursts::1             21136                       # Per bank write bursts
system.mem_ctrls.perBankWrBursts::2             21046                       # Per bank write bursts
system.mem_ctrls.perBankWrBursts::3             21013                       # Per bank write bursts
system.mem_ctrls.perBankWrBursts::4             21001                       # Per bank write bursts
system.mem_ctrls.perBankWrBursts::5             21002                       # Per bank write bursts
system.mem_ctrls.perBankWrBursts::6             21004                       # Per bank write bursts
system.mem_ctrls.perBankWrBursts::7             20988                       # Per bank write bursts
system.mem_ctrls.perBankWrBursts::8             20984                       # Per bank write bursts
system.mem_ctrls.perBankWrBursts::9             20980                       # Per bank write bursts
system.mem_ctrls.perBankWrBursts::10            20969                       # Per bank write bursts
system.mem_ctrls.perBankWrBursts::11            20995                       # Per bank write bursts
system.mem_ctrls.perBankWrBursts::12            20958                       # Per bank write bursts
system.mem_ctrls.perBankWrBursts::13            20926                       # Per bank write bursts
system.mem_ctrls.perBankWrBursts::14            20958                       # Per bank write bursts
system.mem_ctrls.perBankWrBursts::15            21060                       # Per bank write bursts
system.mem_ctrls.perBankWrBursts::16            21170                       # Per bank write bursts
system.mem_ctrls.perBankWrBursts::17            20931                       # Per bank write bursts
system.mem_ctrls.perBankWrBursts::18            21037                       # Per bank write bursts
system.mem_ctrls.perBankWrBursts::19            20938                       # Per bank write bursts
system.mem_ctrls.perBankWrBursts::20            20887                       # Per bank write bursts
system.mem_ctrls.perBankWrBursts::21            20860                       # Per bank write bursts
system.mem_ctrls.perBankWrBursts::22            20868                       # Per bank write bursts
system.mem_ctrls.perBankWrBursts::23            20867                       # Per bank write bursts
system.mem_ctrls.perBankWrBursts::24            20866                       # Per bank write bursts
system.mem_ctrls.perBankWrBursts::25            21041                       # Per bank write bursts
system.mem_ctrls.perBankWrBursts::26            20933                       # Per bank write bursts
system.mem_ctrls.perBankWrBursts::27            20880                       # Per bank write bursts
system.mem_ctrls.perBankWrBursts::28            20881                       # Per bank write bursts
system.mem_ctrls.perBankWrBursts::29            21065                       # Per bank write bursts
system.mem_ctrls.perBankWrBursts::30            20850                       # Per bank write bursts
system.mem_ctrls.perBankWrBursts::31            20932                       # Per bank write bursts
system.mem_ctrls.numRdRetry                         0                       # Number of times read queue was full causing retry
system.mem_ctrls.numWrRetry                         0                       # Number of times write queue was full causing retry
system.mem_ctrls.totGap                  2109748981500                       # Total gap between requests
system.mem_ctrls.readPktSize::0                     0                       # Read request sizes (log2)
system.mem_ctrls.readPktSize::1                     0                       # Read request sizes (log2)
system.mem_ctrls.readPktSize::2                     0                       # Read request sizes (log2)
system.mem_ctrls.readPktSize::3                     0                       # Read request sizes (log2)
system.mem_ctrls.readPktSize::4                     0                       # Read request sizes (log2)
system.mem_ctrls.readPktSize::5                     0                       # Read request sizes (log2)
system.mem_ctrls.readPktSize::6               1152117                       # Read request sizes (log2)
system.mem_ctrls.writePktSize::0                    0                       # Write request sizes (log2)
system.mem_ctrls.writePktSize::1                    0                       # Write request sizes (log2)
system.mem_ctrls.writePktSize::2                    0                       # Write request sizes (log2)
system.mem_ctrls.writePktSize::3                    0                       # Write request sizes (log2)
system.mem_ctrls.writePktSize::4                    0                       # Write request sizes (log2)
system.mem_ctrls.writePktSize::5                    0                       # Write request sizes (log2)
system.mem_ctrls.writePktSize::6               671469                       # Write request sizes (log2)
system.mem_ctrls.rdQLenPdf::0                 1010648                       # What read queue length does an incoming req see
system.mem_ctrls.rdQLenPdf::1                  140881                       # What read queue length does an incoming req see
system.mem_ctrls.rdQLenPdf::2                       0                       # What read queue length does an incoming req see
system.mem_ctrls.rdQLenPdf::3                       0                       # What read queue length does an incoming req see
system.mem_ctrls.rdQLenPdf::4                       0                       # What read queue length does an incoming req see
system.mem_ctrls.rdQLenPdf::5                       0                       # What read queue length does an incoming req see
system.mem_ctrls.rdQLenPdf::6                       0                       # What read queue length does an incoming req see
system.mem_ctrls.rdQLenPdf::7                       0                       # What read queue length does an incoming req see
system.mem_ctrls.rdQLenPdf::8                       0                       # What read queue length does an incoming req see
system.mem_ctrls.rdQLenPdf::9                       0                       # What read queue length does an incoming req see
system.mem_ctrls.rdQLenPdf::10                      0                       # What read queue length does an incoming req see
system.mem_ctrls.rdQLenPdf::11                      0                       # What read queue length does an incoming req see
system.mem_ctrls.rdQLenPdf::12                      0                       # What read queue length does an incoming req see
system.mem_ctrls.rdQLenPdf::13                      0                       # What read queue length does an incoming req see
system.mem_ctrls.rdQLenPdf::14                      0                       # What read queue length does an incoming req see
system.mem_ctrls.rdQLenPdf::15                      0                       # What read queue length does an incoming req see
system.mem_ctrls.rdQLenPdf::16                      0                       # What read queue length does an incoming req see
system.mem_ctrls.rdQLenPdf::17                      0                       # What read queue length does an incoming req see
system.mem_ctrls.rdQLenPdf::18                      0                       # What read queue length does an incoming req see
system.mem_ctrls.rdQLenPdf::19                      0                       # What read queue length does an incoming req see
system.mem_ctrls.rdQLenPdf::20                      0                       # What read queue length does an incoming req see
system.mem_ctrls.rdQLenPdf::21                      0                       # What read queue length does an incoming req see
system.mem_ctrls.rdQLenPdf::22                      0                       # What read queue length does an incoming req see
system.mem_ctrls.rdQLenPdf::23                      0                       # What read queue length does an incoming req see
system.mem_ctrls.rdQLenPdf::24                      0                       # What read queue length does an incoming req see
system.mem_ctrls.rdQLenPdf::25                      0                       # What read queue length does an incoming req see
system.mem_ctrls.rdQLenPdf::26                      0                       # What read queue length does an incoming req see
system.mem_ctrls.rdQLenPdf::27                      0                       # What read queue length does an incoming req see
system.mem_ctrls.rdQLenPdf::28                      0                       # What read queue length does an incoming req see
system.mem_ctrls.rdQLenPdf::29                      0                       # What read queue length does an incoming req see
system.mem_ctrls.rdQLenPdf::30                      0                       # What read queue length does an incoming req see
system.mem_ctrls.rdQLenPdf::31                      0                       # What read queue length does an incoming req see
system.mem_ctrls.rdQLenPdf::32                      0                       # What read queue length does an incoming req see
system.mem_ctrls.rdQLenPdf::33                      0                       # What read queue length does an incoming req see
system.mem_ctrls.rdQLenPdf::34                      0                       # What read queue length does an incoming req see
system.mem_ctrls.rdQLenPdf::35                      0                       # What read queue length does an incoming req see
system.mem_ctrls.rdQLenPdf::36                      0                       # What read queue length does an incoming req see
system.mem_ctrls.rdQLenPdf::37                      0                       # What read queue length does an incoming req see
system.mem_ctrls.rdQLenPdf::38                      0                       # What read queue length does an incoming req see
system.mem_ctrls.rdQLenPdf::39                      0                       # What read queue length does an incoming req see
system.mem_ctrls.rdQLenPdf::40                      0                       # What read queue length does an incoming req see
system.mem_ctrls.rdQLenPdf::41                      0                       # What read queue length does an incoming req see
system.mem_ctrls.rdQLenPdf::42                      0                       # What read queue length does an incoming req see
system.mem_ctrls.rdQLenPdf::43                      0                       # What read queue length does an incoming req see
system.mem_ctrls.rdQLenPdf::44                      0                       # What read queue length does an incoming req see
system.mem_ctrls.rdQLenPdf::45                      0                       # What read queue length does an incoming req see
system.mem_ctrls.rdQLenPdf::46                      0                       # What read queue length does an incoming req see
system.mem_ctrls.rdQLenPdf::47                      0                       # What read queue length does an incoming req see
system.mem_ctrls.rdQLenPdf::48                      0                       # What read queue length does an incoming req see
system.mem_ctrls.rdQLenPdf::49                      0                       # What read queue length does an incoming req see
system.mem_ctrls.rdQLenPdf::50                      0                       # What read queue length does an incoming req see
system.mem_ctrls.rdQLenPdf::51                      0                       # What read queue length does an incoming req see
system.mem_ctrls.rdQLenPdf::52                      0                       # What read queue length does an incoming req see
system.mem_ctrls.rdQLenPdf::53                      0                       # What read queue length does an incoming req see
system.mem_ctrls.rdQLenPdf::54                      0                       # What read queue length does an incoming req see
system.mem_ctrls.rdQLenPdf::55                      0                       # What read queue length does an incoming req see
system.mem_ctrls.rdQLenPdf::56                      0                       # What read queue length does an incoming req see
system.mem_ctrls.rdQLenPdf::57                      0                       # What read queue length does an incoming req see
system.mem_ctrls.rdQLenPdf::58                      0                       # What read queue length does an incoming req see
system.mem_ctrls.rdQLenPdf::59                      0                       # What read queue length does an incoming req see
system.mem_ctrls.rdQLenPdf::60                      0                       # What read queue length does an incoming req see
system.mem_ctrls.rdQLenPdf::61                      0                       # What read queue length does an incoming req see
system.mem_ctrls.rdQLenPdf::62                      0                       # What read queue length does an incoming req see
system.mem_ctrls.rdQLenPdf::63                      0                       # What read queue length does an incoming req see
system.mem_ctrls.wrQLenPdf::0                       1                       # What write queue length does an incoming req see
system.mem_ctrls.wrQLenPdf::1                       1                       # What write queue length does an incoming req see
system.mem_ctrls.wrQLenPdf::2                       1                       # What write queue length does an incoming req see
system.mem_ctrls.wrQLenPdf::3                       1                       # What write queue length does an incoming req see
system.mem_ctrls.wrQLenPdf::4                       1                       # What write queue length does an incoming req see
system.mem_ctrls.wrQLenPdf::5                       1                       # What write queue length does an incoming req see
system.mem_ctrls.wrQLenPdf::6                       1                       # What write queue length does an incoming req see
system.mem_ctrls.wrQLenPdf::7                       1                       # What write queue length does an incoming req see
system.mem_ctrls.wrQLenPdf::8                       1                       # What write queue length does an incoming req see
system.mem_ctrls.wrQLenPdf::9                       1                       # What write queue length does an incoming req see
system.mem_ctrls.wrQLenPdf::10                      1                       # What write queue length does an incoming req see
system.mem_ctrls.wrQLenPdf::11                      1                       # What write queue length does an incoming req see
system.mem_ctrls.wrQLenPdf::12                      1                       # What write queue length does an incoming req see
system.mem_ctrls.wrQLenPdf::13                      1                       # What write queue length does an incoming req see
system.mem_ctrls.wrQLenPdf::14                      1                       # What write queue length does an incoming req see
system.mem_ctrls.wrQLenPdf::15                      1                       # What write queue length does an incoming req see
system.mem_ctrls.wrQLenPdf::16                      1                       # What write queue length does an incoming req see
system.mem_ctrls.wrQLenPdf::17                      1                       # What write queue length does an incoming req see
system.mem_ctrls.wrQLenPdf::18                      1                       # What write queue length does an incoming req see
system.mem_ctrls.wrQLenPdf::19                      1                       # What write queue length does an incoming req see
system.mem_ctrls.wrQLenPdf::20                      1                       # What write queue length does an incoming req see
system.mem_ctrls.wrQLenPdf::21                      1                       # What write queue length does an incoming req see
system.mem_ctrls.wrQLenPdf::22                      1                       # What write queue length does an incoming req see
system.mem_ctrls.wrQLenPdf::23                      1                       # What write queue length does an incoming req see
system.mem_ctrls.wrQLenPdf::24                      1                       # What write queue length does an incoming req see
system.mem_ctrls.wrQLenPdf::25                      1                       # What write queue length does an incoming req see
system.mem_ctrls.wrQLenPdf::26                      1                       # What write queue length does an incoming req see
system.mem_ctrls.wrQLenPdf::27                      1                       # What write queue length does an incoming req see
system.mem_ctrls.wrQLenPdf::28                      1                       # What write queue length does an incoming req see
system.mem_ctrls.wrQLenPdf::29                      1                       # What write queue length does an incoming req see
system.mem_ctrls.wrQLenPdf::30                      1                       # What write queue length does an incoming req see
system.mem_ctrls.wrQLenPdf::31                      1                       # What write queue length does an incoming req see
system.mem_ctrls.wrQLenPdf::32                      1                       # What write queue length does an incoming req see
system.mem_ctrls.wrQLenPdf::33                      1                       # What write queue length does an incoming req see
system.mem_ctrls.wrQLenPdf::34                      1                       # What write queue length does an incoming req see
system.mem_ctrls.wrQLenPdf::35                      1                       # What write queue length does an incoming req see
system.mem_ctrls.wrQLenPdf::36                      1                       # What write queue length does an incoming req see
system.mem_ctrls.wrQLenPdf::37                      1                       # What write queue length does an incoming req see
system.mem_ctrls.wrQLenPdf::38                      1                       # What write queue length does an incoming req see
system.mem_ctrls.wrQLenPdf::39                      1                       # What write queue length does an incoming req see
system.mem_ctrls.wrQLenPdf::40                      1                       # What write queue length does an incoming req see
system.mem_ctrls.wrQLenPdf::41                      1                       # What write queue length does an incoming req see
system.mem_ctrls.wrQLenPdf::42                      1                       # What write queue length does an incoming req see
system.mem_ctrls.wrQLenPdf::43                      1                       # What write queue length does an incoming req see
system.mem_ctrls.wrQLenPdf::44                      1                       # What write queue length does an incoming req see
system.mem_ctrls.wrQLenPdf::45                      1                       # What write queue length does an incoming req see
system.mem_ctrls.wrQLenPdf::46                      1                       # What write queue length does an incoming req see
system.mem_ctrls.wrQLenPdf::47                  13466                       # What write queue length does an incoming req see
system.mem_ctrls.wrQLenPdf::48                  14209                       # What write queue length does an incoming req see
system.mem_ctrls.wrQLenPdf::49                  35610                       # What write queue length does an incoming req see
system.mem_ctrls.wrQLenPdf::50                  40412                       # What write queue length does an incoming req see
system.mem_ctrls.wrQLenPdf::51                  40570                       # What write queue length does an incoming req see
system.mem_ctrls.wrQLenPdf::52                  40590                       # What write queue length does an incoming req see
system.mem_ctrls.wrQLenPdf::53                  40745                       # What write queue length does an incoming req see
system.mem_ctrls.wrQLenPdf::54                  40743                       # What write queue length does an incoming req see
system.mem_ctrls.wrQLenPdf::55                  40442                       # What write queue length does an incoming req see
system.mem_ctrls.wrQLenPdf::56                  40530                       # What write queue length does an incoming req see
system.mem_ctrls.wrQLenPdf::57                  40571                       # What write queue length does an incoming req see
system.mem_ctrls.wrQLenPdf::58                  40557                       # What write queue length does an incoming req see
system.mem_ctrls.wrQLenPdf::59                  40755                       # What write queue length does an incoming req see
system.mem_ctrls.wrQLenPdf::60                  40477                       # What write queue length does an incoming req see
system.mem_ctrls.wrQLenPdf::61                  40985                       # What write queue length does an incoming req see
system.mem_ctrls.wrQLenPdf::62                  40161                       # What write queue length does an incoming req see
system.mem_ctrls.wrQLenPdf::63                  40154                       # What write queue length does an incoming req see
system.mem_ctrls.wrQLenPdf::64                  40147                       # What write queue length does an incoming req see
system.mem_ctrls.wrQLenPdf::65                    212                       # What write queue length does an incoming req see
system.mem_ctrls.wrQLenPdf::66                     71                       # What write queue length does an incoming req see
system.mem_ctrls.wrQLenPdf::67                     14                       # What write queue length does an incoming req see
system.mem_ctrls.wrQLenPdf::68                      1                       # What write queue length does an incoming req see
system.mem_ctrls.wrQLenPdf::69                      0                       # What write queue length does an incoming req see
system.mem_ctrls.wrQLenPdf::70                      0                       # What write queue length does an incoming req see
system.mem_ctrls.wrQLenPdf::71                      0                       # What write queue length does an incoming req see
system.mem_ctrls.wrQLenPdf::72                      0                       # What write queue length does an incoming req see
system.mem_ctrls.wrQLenPdf::73                      0                       # What write queue length does an incoming req see
system.mem_ctrls.wrQLenPdf::74                      0                       # What write queue length does an incoming req see
system.mem_ctrls.wrQLenPdf::75                      0                       # What write queue length does an incoming req see
system.mem_ctrls.wrQLenPdf::76                      0                       # What write queue length does an incoming req see
system.mem_ctrls.wrQLenPdf::77                      0                       # What write queue length does an incoming req see
system.mem_ctrls.wrQLenPdf::78                      0                       # What write queue length does an incoming req see
system.mem_ctrls.wrQLenPdf::79                      0                       # What write queue length does an incoming req see
system.mem_ctrls.wrQLenPdf::80                      0                       # What write queue length does an incoming req see
system.mem_ctrls.wrQLenPdf::81                      0                       # What write queue length does an incoming req see
system.mem_ctrls.wrQLenPdf::82                      0                       # What write queue length does an incoming req see
system.mem_ctrls.wrQLenPdf::83                      0                       # What write queue length does an incoming req see
system.mem_ctrls.wrQLenPdf::84                      0                       # What write queue length does an incoming req see
system.mem_ctrls.wrQLenPdf::85                      0                       # What write queue length does an incoming req see
system.mem_ctrls.wrQLenPdf::86                      0                       # What write queue length does an incoming req see
system.mem_ctrls.wrQLenPdf::87                      0                       # What write queue length does an incoming req see
system.mem_ctrls.wrQLenPdf::88                      0                       # What write queue length does an incoming req see
system.mem_ctrls.wrQLenPdf::89                      0                       # What write queue length does an incoming req see
system.mem_ctrls.wrQLenPdf::90                      0                       # What write queue length does an incoming req see
system.mem_ctrls.wrQLenPdf::91                      0                       # What write queue length does an incoming req see
system.mem_ctrls.wrQLenPdf::92                      0                       # What write queue length does an incoming req see
system.mem_ctrls.wrQLenPdf::93                      0                       # What write queue length does an incoming req see
system.mem_ctrls.wrQLenPdf::94                      0                       # What write queue length does an incoming req see
system.mem_ctrls.wrQLenPdf::95                      0                       # What write queue length does an incoming req see
system.mem_ctrls.wrQLenPdf::96                      0                       # What write queue length does an incoming req see
system.mem_ctrls.wrQLenPdf::97                      0                       # What write queue length does an incoming req see
system.mem_ctrls.wrQLenPdf::98                      0                       # What write queue length does an incoming req see
system.mem_ctrls.wrQLenPdf::99                      0                       # What write queue length does an incoming req see
system.mem_ctrls.wrQLenPdf::100                     0                       # What write queue length does an incoming req see
system.mem_ctrls.wrQLenPdf::101                     0                       # What write queue length does an incoming req see
system.mem_ctrls.wrQLenPdf::102                     0                       # What write queue length does an incoming req see
system.mem_ctrls.wrQLenPdf::103                     0                       # What write queue length does an incoming req see
system.mem_ctrls.wrQLenPdf::104                     0                       # What write queue length does an incoming req see
system.mem_ctrls.wrQLenPdf::105                     0                       # What write queue length does an incoming req see
system.mem_ctrls.wrQLenPdf::106                     0                       # What write queue length does an incoming req see
system.mem_ctrls.wrQLenPdf::107                     0                       # What write queue length does an incoming req see
system.mem_ctrls.wrQLenPdf::108                     0                       # What write queue length does an incoming req see
system.mem_ctrls.wrQLenPdf::109                     0                       # What write queue length does an incoming req see
system.mem_ctrls.wrQLenPdf::110                     0                       # What write queue length does an incoming req see
system.mem_ctrls.wrQLenPdf::111                     0                       # What write queue length does an incoming req see
system.mem_ctrls.wrQLenPdf::112                     0                       # What write queue length does an incoming req see
system.mem_ctrls.wrQLenPdf::113                     0                       # What write queue length does an incoming req see
system.mem_ctrls.wrQLenPdf::114                     0                       # What write queue length does an incoming req see
system.mem_ctrls.wrQLenPdf::115                     0                       # What write queue length does an incoming req see
system.mem_ctrls.wrQLenPdf::116                     0                       # What write queue length does an incoming req see
system.mem_ctrls.wrQLenPdf::117                     0                       # What write queue length does an incoming req see
system.mem_ctrls.wrQLenPdf::118                     0                       # What write queue length does an incoming req see
system.mem_ctrls.wrQLenPdf::119                     0                       # What write queue length does an incoming req see
system.mem_ctrls.wrQLenPdf::120                     0                       # What write queue length does an incoming req see
system.mem_ctrls.wrQLenPdf::121                     0                       # What write queue length does an incoming req see
system.mem_ctrls.wrQLenPdf::122                     0                       # What write queue length does an incoming req see
system.mem_ctrls.wrQLenPdf::123                     0                       # What write queue length does an incoming req see
system.mem_ctrls.wrQLenPdf::124                     0                       # What write queue length does an incoming req see
system.mem_ctrls.wrQLenPdf::125                     0                       # What write queue length does an incoming req see
system.mem_ctrls.wrQLenPdf::126                     0                       # What write queue length does an incoming req see
system.mem_ctrls.wrQLenPdf::127                     0                       # What write queue length does an incoming req see
system.mem_ctrls.bytesPerActivate::samples       902855                       # Bytes accessed per row activation
system.mem_ctrls.bytesPerActivate::mean    129.220874                       # Bytes accessed per row activation
system.mem_ctrls.bytesPerActivate::gmean    86.437731                       # Bytes accessed per row activation
system.mem_ctrls.bytesPerActivate::stdev   181.333998                       # Bytes accessed per row activation
system.mem_ctrls.bytesPerActivate::0-127       741695     82.15%     82.15% # Bytes accessed per row activation
system.mem_ctrls.bytesPerActivate::128-255        51470      5.70%     87.85% # Bytes accessed per row activation
system.mem_ctrls.bytesPerActivate::256-383        16815      1.86%     89.71% # Bytes accessed per row activation
system.mem_ctrls.bytesPerActivate::384-511        16802      1.86%     91.57% # Bytes accessed per row activation
system.mem_ctrls.bytesPerActivate::512-639        51069      5.66%     97.23% # Bytes accessed per row activation
system.mem_ctrls.bytesPerActivate::640-767         2808      0.31%     97.54% # Bytes accessed per row activation
system.mem_ctrls.bytesPerActivate::768-895         3352      0.37%     97.91% # Bytes accessed per row activation
system.mem_ctrls.bytesPerActivate::896-1023         2070      0.23%     98.14% # Bytes accessed per row activation
system.mem_ctrls.bytesPerActivate::1024-1151        16774      1.86%    100.00% # Bytes accessed per row activation
system.mem_ctrls.bytesPerActivate::total       902855                       # Bytes accessed per row activation
system.mem_ctrls.rdPerTurnAround::samples        40141                       # Reads before turning the bus around for writes
system.mem_ctrls.rdPerTurnAround::mean      28.686555                       # Reads before turning the bus around for writes
system.mem_ctrls.rdPerTurnAround::gmean     23.594892                       # Reads before turning the bus around for writes
system.mem_ctrls.rdPerTurnAround::stdev    452.001993                       # Reads before turning the bus around for writes
system.mem_ctrls.rdPerTurnAround::0-2047        40140    100.00%    100.00% # Reads before turning the bus around for writes
system.mem_ctrls.rdPerTurnAround::90112-92159            1      0.00%    100.00% # Reads before turning the bus around for writes
system.mem_ctrls.rdPerTurnAround::total         40141                       # Reads before turning the bus around for writes
system.mem_ctrls.wrPerTurnAround::samples        40141                       # Writes before turning the bus around for reads
system.mem_ctrls.wrPerTurnAround::mean      16.726165                       # Writes before turning the bus around for reads
system.mem_ctrls.wrPerTurnAround::gmean     16.696714                       # Writes before turning the bus around for reads
system.mem_ctrls.wrPerTurnAround::stdev      1.007248                       # Writes before turning the bus around for reads
system.mem_ctrls.wrPerTurnAround::16            26002     64.78%     64.78% # Writes before turning the bus around for reads
system.mem_ctrls.wrPerTurnAround::17              427      1.06%     65.84% # Writes before turning the bus around for reads
system.mem_ctrls.wrPerTurnAround::18            12460     31.04%     96.88% # Writes before turning the bus around for reads
system.mem_ctrls.wrPerTurnAround::19             1220      3.04%     99.92% # Writes before turning the bus around for reads
system.mem_ctrls.wrPerTurnAround::20               21      0.05%     99.97% # Writes before turning the bus around for reads
system.mem_ctrls.wrPerTurnAround::21                8      0.02%     99.99% # Writes before turning the bus around for reads
system.mem_ctrls.wrPerTurnAround::22                3      0.01%    100.00% # Writes before turning the bus around for reads
system.mem_ctrls.wrPerTurnAround::total         40141                       # Writes before turning the bus around for reads
system.mem_ctrls.masterReadBytes::.cpu0.inst        29248                       # Per-master bytes read from memory
system.mem_ctrls.masterReadBytes::.cpu0.data     22239104                       # Per-master bytes read from memory
system.mem_ctrls.masterReadBytes::.cpu1.inst        60800                       # Per-master bytes read from memory
system.mem_ctrls.masterReadBytes::.cpu1.data     51368704                       # Per-master bytes read from memory
system.mem_ctrls.masterWriteBytes::.writebacks     42969920                       # Per-master bytes write to memory
system.mem_ctrls.masterReadRate::.cpu0.inst 13863.240183579417                       # Per-master bytes read from memory rate (Bytes/sec)
system.mem_ctrls.masterReadRate::.cpu0.data 10541098.202256623656                       # Per-master bytes read from memory rate (Bytes/sec)
system.mem_ctrls.masterReadRate::.cpu1.inst 28818.551803939707                       # Per-master bytes read from memory rate (Bytes/sec)
system.mem_ctrls.masterReadRate::.cpu1.data 24348218.048112578690                       # Per-master bytes read from memory rate (Bytes/sec)
system.mem_ctrls.masterWriteRate::.writebacks 20367283.972551725805                       # Per-master bytes write to memory rate (Bytes/sec)
system.mem_ctrls.masterReadAccesses::.cpu0.inst          457                       # Per-master read serviced memory accesses
system.mem_ctrls.masterReadAccesses::.cpu0.data       347486                       # Per-master read serviced memory accesses
system.mem_ctrls.masterReadAccesses::.cpu1.inst          950                       # Per-master read serviced memory accesses
system.mem_ctrls.masterReadAccesses::.cpu1.data       803224                       # Per-master read serviced memory accesses
system.mem_ctrls.masterWriteAccesses::.writebacks       671469                       # Per-master write serviced memory accesses
system.mem_ctrls.masterReadTotalLat::.cpu0.inst     14515914                       # Per-master read total memory access latency
system.mem_ctrls.masterReadTotalLat::.cpu0.data  12591767222                       # Per-master read total memory access latency
system.mem_ctrls.masterReadTotalLat::.cpu1.inst     37547350                       # Per-master read total memory access latency
system.mem_ctrls.masterReadTotalLat::.cpu1.data  99138749062                       # Per-master read total memory access latency
system.mem_ctrls.masterWriteTotalLat::.writebacks 117169276991598                       # Per-master write total memory access latency
system.mem_ctrls.masterReadAvgLat::.cpu0.inst     31763.49                       # Per-master read average memory access latency
system.mem_ctrls.masterReadAvgLat::.cpu0.data     36236.76                       # Per-master read average memory access latency
system.mem_ctrls.masterReadAvgLat::.cpu1.inst     39523.53                       # Per-master read average memory access latency
system.mem_ctrls.masterReadAvgLat::.cpu1.data    123426.03                       # Per-master read average memory access latency
system.mem_ctrls.masterWriteAvgLat::.writebacks 174496926.87                       # Per-master write average memory access latency
system.mem_ctrls.totQLat                  91640034280                       # Total ticks spent queuing
system.mem_ctrls.totMemAccLat            111782579548                       # Total ticks spent from burst creation until serviced by the DRAM
system.mem_ctrls.totBusLat                 3836894628                       # Total ticks spent in databus transfers
system.mem_ctrls.avgQLat                     79581.18                       # Average queueing delay per DRAM burst
system.mem_ctrls.avgBusLat                    3332.00                       # Average bus latency per DRAM burst
system.mem_ctrls.avgMemAccLat                97073.18                       # Average memory access latency per DRAM burst
system.mem_ctrls.avgRdBW                        34.93                       # Average DRAM read bandwidth in MiByte/s
system.mem_ctrls.avgWrBW                        20.37                       # Average achieved write bandwidth in MiByte/s
system.mem_ctrls.avgRdBWSys                     34.95                       # Average system read bandwidth in MiByte/s
system.mem_ctrls.avgWrBWSys                     20.37                       # Average system write bandwidth in MiByte/s
system.mem_ctrls.peakBW                      19207.00                       # Theoretical peak bandwidth in MiByte/s
system.mem_ctrls.busUtil                         0.29                       # Data bus utilization in percentage
system.mem_ctrls.busUtilRead                     0.18                       # Data bus utilization in percentage for reads
system.mem_ctrls.busUtilWrite                    0.11                       # Data bus utilization in percentage for writes
system.mem_ctrls.avgRdQLen                       1.01                       # Average read queue length when enqueuing
system.mem_ctrls.avgWrQLen                      56.60                       # Average write queue length when enqueuing
system.mem_ctrls.readRowHits                   883010                       # Number of row buffer hits during reads
system.mem_ctrls.writeRowHits                   37068                       # Number of row buffer hits during writes
system.mem_ctrls.readRowHitRate                 76.68                       # Row buffer hit rate for reads
system.mem_ctrls.writeRowHitRate                 5.52                       # Row buffer hit rate for writes
system.mem_ctrls.avgGap                    1156923.22                       # Average gap between requests
system.mem_ctrls.pageHitRate                    50.47                       # Row buffer hit rate, read and write combined
system.mem_ctrls_0.actEnergy             704797408.225536                       # Energy for activate commands per rank (pJ)
system.mem_ctrls_0.preEnergy             1244238501.441045                       # Energy for precharge commands per rank (pJ)
system.mem_ctrls_0.readEnergy            1581590438.669886                       # Energy for read commands per rank (pJ)
system.mem_ctrls_0.writeEnergy           793584079.343922                       # Energy for write commands per rank (pJ)
system.mem_ctrls_0.refreshEnergy         83841232639.026703                       # Energy for refresh commands per rank (pJ)
system.mem_ctrls_0.actBackEnergy         44943262461.216187                       # Energy for active background per rank (pJ)
system.mem_ctrls_0.preBackEnergy         6955669946.656402                       # Energy for precharge background per rank (pJ)
system.mem_ctrls_0.actPowerDownEnergy    151461325914.114075                       # Energy for active power-down per rank (pJ)
system.mem_ctrls_0.prePowerDownEnergy    105880227561.171677                       # Energy for precharge power-down per rank (pJ)
system.mem_ctrls_0.selfRefreshEnergy     355197171153.257263                       # Energy for self refresh per rank (pJ)
system.mem_ctrls_0.totalEnergy           752855147880.189209                       # Total energy per rank (pJ)
system.mem_ctrls_0.averagePower            356.845314                       # Core power per rank (mW)
system.mem_ctrls_0.totalIdleTime         1992788566369                       # Total Idle time Per DRAM Rank
system.mem_ctrls_0.memoryStateTime::IDLE  19106417728                       # Time in different power states
system.mem_ctrls_0.memoryStateTime::REF   43418200000                       # Time in different power states
system.mem_ctrls_0.memoryStateTime::SREF 1125257987980                       # Time in different power states
system.mem_ctrls_0.memoryStateTime::PRE_PDN 441167517223                       # Time in different power states
system.mem_ctrls_0.memoryStateTime::ACT   54390551583                       # Time in different power states
system.mem_ctrls_0.memoryStateTime::ACT_PDN 426411418986                       # Time in different power states
system.mem_ctrls_1.actEnergy             703094569.633521                       # Energy for activate commands per rank (pJ)
system.mem_ctrls_1.preEnergy             1241229583.489839                       # Energy for precharge commands per rank (pJ)
system.mem_ctrls_1.readEnergy            1576941219.101854                       # Energy for read commands per rank (pJ)
system.mem_ctrls_1.writeEnergy           790297914.335927                       # Energy for write commands per rank (pJ)
system.mem_ctrls_1.refreshEnergy         85067234606.012573                       # Energy for refresh commands per rank (pJ)
system.mem_ctrls_1.actBackEnergy         45392005310.248993                       # Energy for active background per rank (pJ)
system.mem_ctrls_1.preBackEnergy         7128998139.634954                       # Energy for precharge background per rank (pJ)
system.mem_ctrls_1.actPowerDownEnergy    153446834360.925476                       # Energy for active power-down per rank (pJ)
system.mem_ctrls_1.prePowerDownEnergy    107686182690.045746                       # Energy for precharge power-down per rank (pJ)
system.mem_ctrls_1.selfRefreshEnergy     351877398695.628052                       # Energy for self refresh per rank (pJ)
system.mem_ctrls_1.totalEnergy           755188273826.409668                       # Total energy per rank (pJ)
system.mem_ctrls_1.averagePower            357.951191                       # Core power per rank (mW)
system.mem_ctrls_1.totalIdleTime         1991297165986                       # Total Idle time Per DRAM Rank
system.mem_ctrls_1.memoryStateTime::IDLE  19657610832                       # Time in different power states
system.mem_ctrls_1.memoryStateTime::REF   44053100000                       # Time in different power states
system.mem_ctrls_1.memoryStateTime::SREF 1110606588560                       # Time in different power states
system.mem_ctrls_1.memoryStateTime::PRE_PDN 448692343812                       # Time in different power states
system.mem_ctrls_1.memoryStateTime::ACT   54741075667                       # Time in different power states
system.mem_ctrls_1.memoryStateTime::ACT_PDN 432001374629                       # Time in different power states
system.pwrStateResidencyTicks::UNDEFINED 2109752093500                       # Cumulative time (in ticks) in various power states
system.cpu_voltage_domain.voltage                   1                       # Voltage in Volts
system.cpu_clk_domain.clock                       500                       # Clock period in ticks
system.cpu0.dtb.walker.pwrStateResidencyTicks::UNDEFINED 2109752093500                       # Cumulative time (in ticks) in various power states
system.cpu0.dtb.rdAccesses                   11113130                       # TLB accesses on read requests
system.cpu0.dtb.wrAccesses                    5557434                       # TLB accesses on write requests
system.cpu0.dtb.rdMisses                         5446                       # TLB misses on read requests
system.cpu0.dtb.wrMisses                            8                       # TLB misses on write requests
system.cpu0.apic_clk_domain.clock                8000                       # Clock period in ticks
system.cpu0.interrupts.pwrStateResidencyTicks::UNDEFINED 2109752093500                       # Cumulative time (in ticks) in various power states
system.cpu0.itb.walker.pwrStateResidencyTicks::UNDEFINED 2109752093500                       # Cumulative time (in ticks) in various power states
system.cpu0.itb.rdAccesses                          0                       # TLB accesses on read requests
system.cpu0.itb.wrAccesses                   38902845                       # TLB accesses on write requests
system.cpu0.itb.rdMisses                            0                       # TLB misses on read requests
system.cpu0.itb.wrMisses                           46                       # TLB misses on write requests
system.cpu0.workload.numSyscalls                   12                       # Number of system calls
system.cpu0.pwrStateResidencyTicks::ON   2109752093500                       # Cumulative time (in ticks) in various power states
system.cpu0.numCycles                       172956351                       # number of cpu cycles simulated
system.cpu0.numWorkItemsStarted                     0                       # number of work items this cpu started
system.cpu0.numWorkItemsCompleted                   0                       # number of work items this cpu completed
system.cpu0.committedInsts                   27788477                       # Number of instructions committed
system.cpu0.committedOps                     52798458                       # Number of ops (including micro ops) committed
system.cpu0.num_int_alu_accesses             52797624                       # Number of integer alu accesses
system.cpu0.num_fp_alu_accesses                  1230                       # Number of float alu accesses
system.cpu0.num_vec_alu_accesses                    0                       # Number of vector alu accesses
system.cpu0.num_func_calls                        390                       # number of times a function call or return occured
system.cpu0.num_conditional_control_insts      2779550                       # number of instructions that are conditional controls
system.cpu0.num_int_insts                    52797624                       # number of integer instructions
system.cpu0.num_fp_insts                         1230                       # number of float instructions
system.cpu0.num_vec_insts                           0                       # number of vector instructions
system.cpu0.num_int_register_reads          105593895                       # number of times the integer registers were read
system.cpu0.num_int_register_writes          44460024                       # number of times the integer registers were written
system.cpu0.num_fp_register_reads                1409                       # number of times the floating registers were read
system.cpu0.num_fp_register_writes                687                       # number of times the floating registers were written
system.cpu0.num_vec_register_reads                  0                       # number of times the vector registers were read
system.cpu0.num_vec_register_writes                 0                       # number of times the vector registers were written
system.cpu0.num_cc_register_reads            13900419                       # number of times the CC registers were read
system.cpu0.num_cc_register_writes           16673169                       # number of times the CC registers were written
system.cpu0.num_mem_refs                     16670560                       # number of memory refs
system.cpu0.num_load_insts                   11113127                       # Number of load instructions
system.cpu0.num_store_insts                   5557433                       # Number of store instructions
system.cpu0.num_idle_cycles              165866916.311587                       # Number of idle cycles
system.cpu0.num_busy_cycles              7089434.688413                       # Number of busy cycles
system.cpu0.not_idle_fraction                0.040990                       # Percentage of non-idle cycles
system.cpu0.idle_fraction                    0.959010                       # Percentage of idle cycles
system.cpu0.Branches                          2780111                       # Number of branches fetched
system.cpu0.op_class::No_OpClass                  340      0.00%      0.00% # Class of executed instruction
system.cpu0.op_class::IntAlu                 36126995     68.42%     68.42% # Class of executed instruction
system.cpu0.op_class::IntMult                       5      0.00%     68.42% # Class of executed instruction
system.cpu0.op_class::IntDiv                       28      0.00%     68.43% # Class of executed instruction
system.cpu0.op_class::FloatAdd                    144      0.00%     68.43% # Class of executed instruction
system.cpu0.op_class::FloatCmp                      0      0.00%     68.43% # Class of executed instruction
system.cpu0.op_class::FloatCvt                      0      0.00%     68.43% # Class of executed instruction
system.cpu0.op_class::FloatMult                     0      0.00%     68.43% # Class of executed instruction
system.cpu0.op_class::FloatMultAcc                  0      0.00%     68.43% # Class of executed instruction
system.cpu0.op_class::FloatDiv                      0      0.00%     68.43% # Class of executed instruction
system.cpu0.op_class::FloatMisc                     0      0.00%     68.43% # Class of executed instruction
system.cpu0.op_class::FloatSqrt                     0      0.00%     68.43% # Class of executed instruction
system.cpu0.op_class::SimdAdd                       0      0.00%     68.43% # Class of executed instruction
system.cpu0.op_class::SimdAddAcc                    0      0.00%     68.43% # Class of executed instruction
system.cpu0.op_class::SimdAlu                     104      0.00%     68.43% # Class of executed instruction
system.cpu0.op_class::SimdCmp                       0      0.00%     68.43% # Class of executed instruction
system.cpu0.op_class::SimdCvt                      54      0.00%     68.43% # Class of executed instruction
system.cpu0.op_class::SimdMisc                    228      0.00%     68.43% # Class of executed instruction
system.cpu0.op_class::SimdMult                      0      0.00%     68.43% # Class of executed instruction
system.cpu0.op_class::SimdMultAcc                   0      0.00%     68.43% # Class of executed instruction
system.cpu0.op_class::SimdShift                     0      0.00%     68.43% # Class of executed instruction
system.cpu0.op_class::SimdShiftAcc                  0      0.00%     68.43% # Class of executed instruction
system.cpu0.op_class::SimdSqrt                      0      0.00%     68.43% # Class of executed instruction
system.cpu0.op_class::SimdFloatAdd                  0      0.00%     68.43% # Class of executed instruction
system.cpu0.op_class::SimdFloatAlu                  0      0.00%     68.43% # Class of executed instruction
system.cpu0.op_class::SimdFloatCmp                  0      0.00%     68.43% # Class of executed instruction
system.cpu0.op_class::SimdFloatCvt                  0      0.00%     68.43% # Class of executed instruction
system.cpu0.op_class::SimdFloatDiv                  0      0.00%     68.43% # Class of executed instruction
system.cpu0.op_class::SimdFloatMisc                 0      0.00%     68.43% # Class of executed instruction
system.cpu0.op_class::SimdFloatMult                 0      0.00%     68.43% # Class of executed instruction
system.cpu0.op_class::SimdFloatMultAcc              0      0.00%     68.43% # Class of executed instruction
system.cpu0.op_class::SimdFloatSqrt                 0      0.00%     68.43% # Class of executed instruction
system.cpu0.op_class::MemRead                11113059     21.05%     89.47% # Class of executed instruction
system.cpu0.op_class::MemWrite                5556944     10.52%    100.00% # Class of executed instruction
system.cpu0.op_class::FloatMemRead                 68      0.00%    100.00% # Class of executed instruction
system.cpu0.op_class::FloatMemWrite               489      0.00%    100.00% # Class of executed instruction
system.cpu0.op_class::IprAccess                     0      0.00%    100.00% # Class of executed instruction
system.cpu0.op_class::InstPrefetch                  0      0.00%    100.00% # Class of executed instruction
system.cpu0.op_class::total                  52798458                       # Class of executed instruction
system.cpu0.dcache.tags.pwrStateResidencyTicks::UNDEFINED 2109752093500                       # Cumulative time (in ticks) in various power states
system.cpu0.dcache.tags.tagsinuse            7.999997                       # Cycle average of tags in use
system.cpu0.dcache.tags.total_refs           16670564                       # Total number of references to valid blocks.
system.cpu0.dcache.tags.sampled_refs           347954                       # Sample count of references to valid blocks.
system.cpu0.dcache.tags.avg_refs            47.910253                       # Average number of references to valid blocks.
system.cpu0.dcache.tags.warmup_cycle           182500                       # Cycle when the warmup percentage was hit.
system.cpu0.dcache.tags.occ_blocks::.cpu0.data     7.999997                       # Average occupied blocks per requestor
system.cpu0.dcache.tags.occ_percent::.cpu0.data     1.000000                       # Average percentage of cache occupancy
system.cpu0.dcache.tags.occ_percent::total     1.000000                       # Average percentage of cache occupancy
system.cpu0.dcache.tags.occ_task_id_blocks::1024            8                       # Occupied blocks per task id
system.cpu0.dcache.tags.age_task_id_blocks_1024::4            8                       # Occupied blocks per task id
system.cpu0.dcache.tags.occ_task_id_percent::1024            1                       # Percentage of cache occupancy per task id
system.cpu0.dcache.tags.tag_accesses        133712466                       # Number of tag accesses
system.cpu0.dcache.tags.data_accesses       133712466                       # Number of data accesses
system.cpu0.dcache.pwrStateResidencyTicks::UNDEFINED 2109752093500                       # Cumulative time (in ticks) in various power states
system.cpu0.dcache.ReadReq_hits::.cpu0.data     10765440                       # number of ReadReq hits
system.cpu0.dcache.ReadReq_hits::total       10765440                       # number of ReadReq hits
system.cpu0.dcache.WriteReq_hits::.cpu0.data      5557170                       # number of WriteReq hits
system.cpu0.dcache.WriteReq_hits::total       5557170                       # number of WriteReq hits
system.cpu0.dcache.demand_hits::.cpu0.data     16322610                       # number of demand (read+write) hits
system.cpu0.dcache.demand_hits::total        16322610                       # number of demand (read+write) hits
system.cpu0.dcache.overall_hits::.cpu0.data     16322610                       # number of overall hits
system.cpu0.dcache.overall_hits::total       16322610                       # number of overall hits
system.cpu0.dcache.ReadReq_misses::.cpu0.data       347690                       # number of ReadReq misses
system.cpu0.dcache.ReadReq_misses::total       347690                       # number of ReadReq misses
system.cpu0.dcache.WriteReq_misses::.cpu0.data          264                       # number of WriteReq misses
system.cpu0.dcache.WriteReq_misses::total          264                       # number of WriteReq misses
system.cpu0.dcache.demand_misses::.cpu0.data       347954                       # number of demand (read+write) misses
system.cpu0.dcache.demand_misses::total        347954                       # number of demand (read+write) misses
system.cpu0.dcache.overall_misses::.cpu0.data       347954                       # number of overall misses
system.cpu0.dcache.overall_misses::total       347954                       # number of overall misses
system.cpu0.dcache.ReadReq_miss_latency::.cpu0.data  31199809500                       # number of ReadReq miss cycles
system.cpu0.dcache.ReadReq_miss_latency::total  31199809500                       # number of ReadReq miss cycles
system.cpu0.dcache.WriteReq_miss_latency::.cpu0.data     14404000                       # number of WriteReq miss cycles
system.cpu0.dcache.WriteReq_miss_latency::total     14404000                       # number of WriteReq miss cycles
system.cpu0.dcache.demand_miss_latency::.cpu0.data  31214213500                       # number of demand (read+write) miss cycles
system.cpu0.dcache.demand_miss_latency::total  31214213500                       # number of demand (read+write) miss cycles
system.cpu0.dcache.overall_miss_latency::.cpu0.data  31214213500                       # number of overall miss cycles
system.cpu0.dcache.overall_miss_latency::total  31214213500                       # number of overall miss cycles
system.cpu0.dcache.ReadReq_accesses::.cpu0.data     11113130                       # number of ReadReq accesses(hits+misses)
system.cpu0.dcache.ReadReq_accesses::total     11113130                       # number of ReadReq accesses(hits+misses)
system.cpu0.dcache.WriteReq_accesses::.cpu0.data      5557434                       # number of WriteReq accesses(hits+misses)
system.cpu0.dcache.WriteReq_accesses::total      5557434                       # number of WriteReq accesses(hits+misses)
system.cpu0.dcache.demand_accesses::.cpu0.data     16670564                       # number of demand (read+write) accesses
system.cpu0.dcache.demand_accesses::total     16670564                       # number of demand (read+write) accesses
system.cpu0.dcache.overall_accesses::.cpu0.data     16670564                       # number of overall (read+write) accesses
system.cpu0.dcache.overall_accesses::total     16670564                       # number of overall (read+write) accesses
system.cpu0.dcache.ReadReq_miss_rate::.cpu0.data     0.031286                       # miss rate for ReadReq accesses
system.cpu0.dcache.ReadReq_miss_rate::total     0.031286                       # miss rate for ReadReq accesses
system.cpu0.dcache.WriteReq_miss_rate::.cpu0.data     0.000048                       # miss rate for WriteReq accesses
system.cpu0.dcache.WriteReq_miss_rate::total     0.000048                       # miss rate for WriteReq accesses
system.cpu0.dcache.demand_miss_rate::.cpu0.data     0.020872                       # miss rate for demand accesses
system.cpu0.dcache.demand_miss_rate::total     0.020872                       # miss rate for demand accesses
system.cpu0.dcache.overall_miss_rate::.cpu0.data     0.020872                       # miss rate for overall accesses
system.cpu0.dcache.overall_miss_rate::total     0.020872                       # miss rate for overall accesses
system.cpu0.dcache.ReadReq_avg_miss_latency::.cpu0.data 89734.560959                       # average ReadReq miss latency
system.cpu0.dcache.ReadReq_avg_miss_latency::total 89734.560959                       # average ReadReq miss latency
system.cpu0.dcache.WriteReq_avg_miss_latency::.cpu0.data 54560.606061                       # average WriteReq miss latency
system.cpu0.dcache.WriteReq_avg_miss_latency::total 54560.606061                       # average WriteReq miss latency
system.cpu0.dcache.demand_avg_miss_latency::.cpu0.data 89707.873742                       # average overall miss latency
system.cpu0.dcache.demand_avg_miss_latency::total 89707.873742                       # average overall miss latency
system.cpu0.dcache.overall_avg_miss_latency::.cpu0.data 89707.873742                       # average overall miss latency
system.cpu0.dcache.overall_avg_miss_latency::total 89707.873742                       # average overall miss latency
system.cpu0.dcache.blocked_cycles::no_mshrs            0                       # number of cycles access was blocked
system.cpu0.dcache.blocked_cycles::no_targets            0                       # number of cycles access was blocked
system.cpu0.dcache.blocked::no_mshrs                0                       # number of cycles access was blocked
system.cpu0.dcache.blocked::no_targets              0                       # number of cycles access was blocked
system.cpu0.dcache.avg_blocked_cycles::no_mshrs          nan                       # average number of cycles each access was blocked
system.cpu0.dcache.avg_blocked_cycles::no_targets          nan                       # average number of cycles each access was blocked
system.cpu0.dcache.writebacks::.writebacks          549                       # number of writebacks
system.cpu0.dcache.writebacks::total              549                       # number of writebacks
system.cpu0.dcache.ReadReq_mshr_misses::.cpu0.data       347690                       # number of ReadReq MSHR misses
system.cpu0.dcache.ReadReq_mshr_misses::total       347690                       # number of ReadReq MSHR misses
system.cpu0.dcache.WriteReq_mshr_misses::.cpu0.data          264                       # number of WriteReq MSHR misses
system.cpu0.dcache.WriteReq_mshr_misses::total          264                       # number of WriteReq MSHR misses
system.cpu0.dcache.demand_mshr_misses::.cpu0.data       347954                       # number of demand (read+write) MSHR misses
system.cpu0.dcache.demand_mshr_misses::total       347954                       # number of demand (read+write) MSHR misses
system.cpu0.dcache.overall_mshr_misses::.cpu0.data       347954                       # number of overall MSHR misses
system.cpu0.dcache.overall_mshr_misses::total       347954                       # number of overall MSHR misses
system.cpu0.dcache.ReadReq_mshr_miss_latency::.cpu0.data  30852119500                       # number of ReadReq MSHR miss cycles
system.cpu0.dcache.ReadReq_mshr_miss_latency::total  30852119500                       # number of ReadReq MSHR miss cycles
system.cpu0.dcache.WriteReq_mshr_miss_latency::.cpu0.data     14140000                       # number of WriteReq MSHR miss cycles
system.cpu0.dcache.WriteReq_mshr_miss_latency::total     14140000                       # number of WriteReq MSHR miss cycles
system.cpu0.dcache.demand_mshr_miss_latency::.cpu0.data  30866259500                       # number of demand (read+write) MSHR miss cycles
system.cpu0.dcache.demand_mshr_miss_latency::total  30866259500                       # number of demand (read+write) MSHR miss cycles
system.cpu0.dcache.overall_mshr_miss_latency::.cpu0.data  30866259500                       # number of overall MSHR miss cycles
system.cpu0.dcache.overall_mshr_miss_latency::total  30866259500                       # number of overall MSHR miss cycles
system.cpu0.dcache.ReadReq_mshr_miss_rate::.cpu0.data     0.031286                       # mshr miss rate for ReadReq accesses
system.cpu0.dcache.ReadReq_mshr_miss_rate::total     0.031286                       # mshr miss rate for ReadReq accesses
system.cpu0.dcache.WriteReq_mshr_miss_rate::.cpu0.data     0.000048                       # mshr miss rate for WriteReq accesses
system.cpu0.dcache.WriteReq_mshr_miss_rate::total     0.000048                       # mshr miss rate for WriteReq accesses
system.cpu0.dcache.demand_mshr_miss_rate::.cpu0.data     0.020872                       # mshr miss rate for demand accesses
system.cpu0.dcache.demand_mshr_miss_rate::total     0.020872                       # mshr miss rate for demand accesses
system.cpu0.dcache.overall_mshr_miss_rate::.cpu0.data     0.020872                       # mshr miss rate for overall accesses
system.cpu0.dcache.overall_mshr_miss_rate::total     0.020872                       # mshr miss rate for overall accesses
system.cpu0.dcache.ReadReq_avg_mshr_miss_latency::.cpu0.data 88734.560959                       # average ReadReq mshr miss latency
system.cpu0.dcache.ReadReq_avg_mshr_miss_latency::total 88734.560959                       # average ReadReq mshr miss latency
system.cpu0.dcache.WriteReq_avg_mshr_miss_latency::.cpu0.data 53560.606061                       # average WriteReq mshr miss latency
system.cpu0.dcache.WriteReq_avg_mshr_miss_latency::total 53560.606061                       # average WriteReq mshr miss latency
system.cpu0.dcache.demand_avg_mshr_miss_latency::.cpu0.data 88707.873742                       # average overall mshr miss latency
system.cpu0.dcache.demand_avg_mshr_miss_latency::total 88707.873742                       # average overall mshr miss latency
system.cpu0.dcache.overall_avg_mshr_miss_latency::.cpu0.data 88707.873742                       # average overall mshr miss latency
system.cpu0.dcache.overall_avg_mshr_miss_latency::total 88707.873742                       # average overall mshr miss latency
system.cpu0.dcache.replacements                347946                       # number of replacements
system.cpu0.dtb_walker_cache.tags.pwrStateResidencyTicks::UNDEFINED 2109752093500                       # Cumulative time (in ticks) in various power states
system.cpu0.dtb_walker_cache.tags.tagsinuse            0                       # Cycle average of tags in use
system.cpu0.dtb_walker_cache.tags.total_refs            0                       # Total number of references to valid blocks.
system.cpu0.dtb_walker_cache.tags.sampled_refs            0                       # Sample count of references to valid blocks.
system.cpu0.dtb_walker_cache.tags.avg_refs          nan                       # Average number of references to valid blocks.
system.cpu0.dtb_walker_cache.tags.warmup_cycle            0                       # Cycle when the warmup percentage was hit.
system.cpu0.dtb_walker_cache.tags.tag_accesses            0                       # Number of tag accesses
system.cpu0.dtb_walker_cache.tags.data_accesses            0                       # Number of data accesses
system.cpu0.dtb_walker_cache.pwrStateResidencyTicks::UNDEFINED 2109752093500                       # Cumulative time (in ticks) in various power states
system.cpu0.dtb_walker_cache.blocked_cycles::no_mshrs            0                       # number of cycles access was blocked
system.cpu0.dtb_walker_cache.blocked_cycles::no_targets            0                       # number of cycles access was blocked
system.cpu0.dtb_walker_cache.blocked::no_mshrs            0                       # number of cycles access was blocked
system.cpu0.dtb_walker_cache.blocked::no_targets            0                       # number of cycles access was blocked
system.cpu0.dtb_walker_cache.avg_blocked_cycles::no_mshrs          nan                       # average number of cycles each access was blocked
system.cpu0.dtb_walker_cache.avg_blocked_cycles::no_targets          nan                       # average number of cycles each access was blocked
system.cpu0.dtb_walker_cache.replacements            0                       # number of replacements
system.cpu0.icache.tags.pwrStateResidencyTicks::UNDEFINED 2109752093500                       # Cumulative time (in ticks) in various power states
system.cpu0.icache.tags.tagsinuse          432.715435                       # Cycle average of tags in use
system.cpu0.icache.tags.total_refs           38902845                       # Total number of references to valid blocks.
[...]
system.l2.ReadCleanReq_mshr_misses::.cpu1.inst          950                       # number of ReadCleanReq MSHR misses
system.l2.ReadCleanReq_mshr_misses::total         1407                       # number of ReadCleanReq MSHR misses
system.l2.ReadSharedReq_mshr_misses::.cpu0.data       347355                       # number of ReadSharedReq MSHR misses
system.l2.ReadSharedReq_mshr_misses::.cpu1.data        53574                       # number of ReadSharedReq MSHR misses
system.l2.ReadSharedReq_mshr_misses::total       400929                       # number of ReadSharedReq MSHR misses
system.l2.demand_mshr_misses::.cpu0.inst          457                       # number of demand (read+write) MSHR misses
system.l2.demand_mshr_misses::.cpu0.data       347486                       # number of demand (read+write) MSHR misses
system.l2.demand_mshr_misses::.cpu1.inst          950                       # number of demand (read+write) MSHR misses
system.l2.demand_mshr_misses::.cpu1.data       803224                       # number of demand (read+write) MSHR misses
system.l2.demand_mshr_misses::total           1152117                       # number of demand (read+write) MSHR misses
system.l2.overall_mshr_misses::.cpu0.inst          457                       # number of overall MSHR misses
system.l2.overall_mshr_misses::.cpu0.data       347486                       # number of overall MSHR misses
system.l2.overall_mshr_misses::.cpu1.inst          950                       # number of overall MSHR misses
system.l2.overall_mshr_misses::.cpu1.data       803224                       # number of overall MSHR misses
system.l2.overall_mshr_misses::total          1152117                       # number of overall MSHR misses
system.l2.ReadExReq_mshr_miss_latency::.cpu0.data     11033000                       # number of ReadExReq MSHR miss cycles
system.l2.ReadExReq_mshr_miss_latency::.cpu1.data 123539157000                       # number of ReadExReq MSHR miss cycles
system.l2.ReadExReq_mshr_miss_latency::total 123550190000                       # number of ReadExReq MSHR miss cycles
system.l2.ReadCleanReq_mshr_miss_latency::.cpu0.inst     33265000                       # number of ReadCleanReq MSHR miss cycles
system.l2.ReadCleanReq_mshr_miss_latency::.cpu1.inst     76563000                       # number of ReadCleanReq MSHR miss cycles
system.l2.ReadCleanReq_mshr_miss_latency::total    109828000                       # number of ReadCleanReq MSHR miss cycles
system.l2.ReadSharedReq_mshr_miss_latency::.cpu0.data  26848569000                       # number of ReadSharedReq MSHR miss cycles
system.l2.ReadSharedReq_mshr_miss_latency::.cpu1.data   8563784000                       # number of ReadSharedReq MSHR miss cycles
system.l2.ReadSharedReq_mshr_miss_latency::total  35412353000                       # number of ReadSharedReq MSHR miss cycles
system.l2.demand_mshr_miss_latency::.cpu0.inst     33265000                       # number of demand (read+write) MSHR miss cycles
system.l2.demand_mshr_miss_latency::.cpu0.data  26859602000                       # number of demand (read+write) MSHR miss cycles
system.l2.demand_mshr_miss_latency::.cpu1.inst     76563000                       # number of demand (read+write) MSHR miss cycles
system.l2.demand_mshr_miss_latency::.cpu1.data 132102941000                       # number of demand (read+write) MSHR miss cycles
system.l2.demand_mshr_miss_latency::total 159072371000                       # number of demand (read+write) MSHR miss cycles
system.l2.overall_mshr_miss_latency::.cpu0.inst     33265000                       # number of overall MSHR miss cycles
system.l2.overall_mshr_miss_latency::.cpu0.data  26859602000                       # number of overall MSHR miss cycles
system.l2.overall_mshr_miss_latency::.cpu1.inst     76563000                       # number of overall MSHR miss cycles
system.l2.overall_mshr_miss_latency::.cpu1.data 132102941000                       # number of overall MSHR miss cycles
system.l2.overall_mshr_miss_latency::total 159072371000                       # number of overall MSHR miss cycles
system.l2.CleanEvict_mshr_miss_rate::.writebacks          inf                       # mshr miss rate for CleanEvict accesses
system.l2.CleanEvict_mshr_miss_rate::total          inf                       # mshr miss rate for CleanEvict accesses
system.l2.ReadExReq_mshr_miss_rate::.cpu0.data     0.496212                       # mshr miss rate for ReadExReq accesses
system.l2.ReadExReq_mshr_miss_rate::.cpu1.data     0.234098                       # mshr miss rate for ReadExReq accesses
system.l2.ReadExReq_mshr_miss_rate::total     0.234119                       # mshr miss rate for ReadExReq accesses
system.l2.ReadCleanReq_mshr_miss_rate::.cpu0.inst            1                       # mshr miss rate for ReadCleanReq accesses
system.l2.ReadCleanReq_mshr_miss_rate::.cpu1.inst     0.992685                       # mshr miss rate for ReadCleanReq accesses
system.l2.ReadCleanReq_mshr_miss_rate::total     0.995050                       # mshr miss rate for ReadCleanReq accesses
system.l2.ReadSharedReq_mshr_miss_rate::.cpu0.data     0.999036                       # mshr miss rate for ReadSharedReq accesses
system.l2.ReadSharedReq_mshr_miss_rate::.cpu1.data     0.001584                       # mshr miss rate for ReadSharedReq accesses
system.l2.ReadSharedReq_mshr_miss_rate::total     0.011733                       # mshr miss rate for ReadSharedReq accesses
system.l2.demand_mshr_miss_rate::.cpu0.inst            1                       # mshr miss rate for demand accesses
system.l2.demand_mshr_miss_rate::.cpu0.data     0.998655                       # mshr miss rate for demand accesses
system.l2.demand_mshr_miss_rate::.cpu1.inst     0.992685                       # mshr miss rate for demand accesses
system.l2.demand_mshr_miss_rate::.cpu1.data     0.021693                       # mshr miss rate for demand accesses
system.l2.demand_mshr_miss_rate::total       0.030825                       # mshr miss rate for demand accesses
system.l2.overall_mshr_miss_rate::.cpu0.inst            1                       # mshr miss rate for overall accesses
system.l2.overall_mshr_miss_rate::.cpu0.data     0.998655                       # mshr miss rate for overall accesses
system.l2.overall_mshr_miss_rate::.cpu1.inst     0.992685                       # mshr miss rate for overall accesses
system.l2.overall_mshr_miss_rate::.cpu1.data     0.021693                       # mshr miss rate for overall accesses
system.l2.overall_mshr_miss_rate::total      0.030825                       # mshr miss rate for overall accesses
system.l2.ReadExReq_avg_mshr_miss_latency::.cpu0.data 84221.374046                       # average ReadExReq mshr miss latency
system.l2.ReadExReq_avg_mshr_miss_latency::.cpu1.data 164795.780698                       # average ReadExReq mshr miss latency
system.l2.ReadExReq_avg_mshr_miss_latency::total 164781.702924                       # average ReadExReq mshr miss latency
system.l2.ReadCleanReq_avg_mshr_miss_latency::.cpu0.inst 72789.934354                       # average ReadCleanReq mshr miss latency
system.l2.ReadCleanReq_avg_mshr_miss_latency::.cpu1.inst 80592.631579                       # average ReadCleanReq mshr miss latency
system.l2.ReadCleanReq_avg_mshr_miss_latency::total 78058.280028                       # average ReadCleanReq mshr miss latency
system.l2.ReadSharedReq_avg_mshr_miss_latency::.cpu0.data 77294.321372                       # average ReadSharedReq mshr miss latency
system.l2.ReadSharedReq_avg_mshr_miss_latency::.cpu1.data 159849.628551                       # average ReadSharedReq mshr miss latency
system.l2.ReadSharedReq_avg_mshr_miss_latency::total 88325.745955                       # average ReadSharedReq mshr miss latency
system.l2.demand_avg_mshr_miss_latency::.cpu0.inst 72789.934354                       # average overall mshr miss latency
system.l2.demand_avg_mshr_miss_latency::.cpu0.data 77296.932826                       # average overall mshr miss latency
system.l2.demand_avg_mshr_miss_latency::.cpu1.inst 80592.631579                       # average overall mshr miss latency
system.l2.demand_avg_mshr_miss_latency::.cpu1.data 164465.878759                       # average overall mshr miss latency
system.l2.demand_avg_mshr_miss_latency::total 138069.632685                       # average overall mshr miss latency
system.l2.overall_avg_mshr_miss_latency::.cpu0.inst 72789.934354                       # average overall mshr miss latency
system.l2.overall_avg_mshr_miss_latency::.cpu0.data 77296.932826                       # average overall mshr miss latency
system.l2.overall_avg_mshr_miss_latency::.cpu1.inst 80592.631579                       # average overall mshr miss latency
system.l2.overall_avg_mshr_miss_latency::.cpu1.data 164465.878759                       # average overall mshr miss latency
system.l2.overall_avg_mshr_miss_latency::total 138069.632685                       # average overall mshr miss latency
system.l2.replacements                        1049495                       # number of replacements
system.membus.snoop_filter.tot_requests       2200247                       # Total number of requests made to the snoop filter.
system.membus.snoop_filter.hit_single_requests      1048130                       # Number of requests hitting in the snoop filter with a single holder of the requested data.
system.membus.snoop_filter.hit_multi_requests            0                       # Number of requests hitting in the snoop filter with multiple (>1) holders of the requested data.
system.membus.snoop_filter.tot_snoops               0                       # Total number of snoops made to the snoop filter.
system.membus.snoop_filter.hit_single_snoops            0                       # Number of snoops hitting in the snoop filter with a single holder of the requested data.
system.membus.snoop_filter.hit_multi_snoops            0                       # Number of snoops hitting in the snoop filter with multiple (>1) holders of the requested data.
system.membus.pwrStateResidencyTicks::UNDEFINED 2109752093500                       # Cumulative time (in ticks) in various power states
system.membus.trans_dist::ReadResp             402336                       # Transaction distribution
system.membus.trans_dist::WritebackDirty       671469                       # Transaction distribution
system.membus.trans_dist::CleanEvict           376661                       # Transaction distribution
system.membus.trans_dist::ReadExReq            749781                       # Transaction distribution
system.membus.trans_dist::ReadExResp           749781                       # Transaction distribution
system.membus.trans_dist::ReadSharedReq        402336                       # Transaction distribution
system.membus.pkt_count_system.l2.mem_side::system.mem_ctrls.port      3352364                       # Packet count per connected master and slave (bytes)
system.membus.pkt_count_system.l2.mem_side::total      3352364                       # Packet count per connected master and slave (bytes)
system.membus.pkt_count::total                3352364                       # Packet count per connected master and slave (bytes)
system.membus.pkt_size_system.l2.mem_side::system.mem_ctrls.port    116709504                       # Cumulative packet size per connected master and slave (bytes)
system.membus.pkt_size_system.l2.mem_side::total    116709504                       # Cumulative packet size per connected master and slave (bytes)
system.membus.pkt_size::total               116709504                       # Cumulative packet size per connected master and slave (bytes)
system.membus.snoops                                0                       # Total snoops (count)
system.membus.snoopTraffic                          0                       # Total snoop traffic (bytes)
system.membus.snoop_fanout::samples           1152117                       # Request fanout histogram
system.membus.snoop_fanout::mean                    0                       # Request fanout histogram
system.membus.snoop_fanout::stdev                   0                       # Request fanout histogram
system.membus.snoop_fanout::underflows              0      0.00%      0.00% # Request fanout histogram
system.membus.snoop_fanout::0                 1152117    100.00%    100.00% # Request fanout histogram
system.membus.snoop_fanout::1                       0      0.00%    100.00% # Request fanout histogram
system.membus.snoop_fanout::overflows               0      0.00%    100.00% # Request fanout histogram
system.membus.snoop_fanout::min_value               0                       # Request fanout histogram
system.membus.snoop_fanout::max_value               0                       # Request fanout histogram
system.membus.snoop_fanout::total             1152117                       # Request fanout histogram
system.membus.reqLayer4.occupancy          4907233000                       # Layer occupancy (ticks)
system.membus.reqLayer4.utilization               0.2                       # Layer utilization (%)
system.membus.respLayer1.occupancy         6298708149                       # Layer occupancy (ticks)
system.membus.respLayer1.utilization              0.3                       # Layer utilization (%)
system.tol2bus.snoop_filter.tot_requests     74751592                       # Total number of requests made to the snoop filter.
system.tol2bus.snoop_filter.hit_single_requests     37375314                       # Number of requests hitting in the snoop filter with a single holder of the requested data.
system.tol2bus.snoop_filter.hit_multi_requests            0                       # Number of requests hitting in the snoop filter with multiple (>1) holders of the requested data.
system.tol2bus.snoop_filter.tot_snoops           1368                       # Total number of snoops made to the snoop filter.
system.tol2bus.snoop_filter.hit_single_snoops         1368                       # Number of snoops hitting in the snoop filter with a single holder of the requested data.
system.tol2bus.snoop_filter.hit_multi_snoops            0                       # Number of snoops hitting in the snoop filter with multiple (>1) holders of the requested data.
system.tol2bus.pwrStateResidencyTicks::UNDEFINED 2109752093500                       # Cumulative time (in ticks) in various power states
system.tol2bus.trans_dist::ReadResp          34173721                       # Transaction distribution
system.tol2bus.trans_dist::WritebackDirty     26753081                       # Transaction distribution
system.tol2bus.trans_dist::WritebackClean          466                       # Transaction distribution
system.tol2bus.trans_dist::CleanEvict        11671262                       # Transaction distribution
system.tol2bus.trans_dist::ReadExReq          3202557                       # Transaction distribution
system.tol2bus.trans_dist::ReadExResp         3202557                       # Transaction distribution
system.tol2bus.trans_dist::ReadCleanReq          1414                       # Transaction distribution
system.tol2bus.trans_dist::ReadSharedReq     34172307                       # Transaction distribution
system.tol2bus.pkt_count_system.cpu0.icache.mem_side::system.l2.cpu_side          935                       # Packet count per connected master and slave (bytes)
system.tol2bus.pkt_count_system.cpu0.dcache.mem_side::system.l2.cpu_side      1043854                       # Packet count per connected master and slave (bytes)
system.tol2bus.pkt_count_system.cpu1.icache.mem_side::system.l2.cpu_side         2359                       # Packet count per connected master and slave (bytes)
system.tol2bus.pkt_count_system.cpu1.dcache.mem_side::system.l2.cpu_side    111080722                       # Packet count per connected master and slave (bytes)
system.tol2bus.pkt_count::total             112127870                       # Packet count per connected master and slave (bytes)
system.tol2bus.pkt_size_system.cpu0.icache.mem_side::system.l2.cpu_side        30592                       # Cumulative packet size per connected master and slave (bytes)
system.tol2bus.pkt_size_system.cpu0.dcache.mem_side::system.l2.cpu_side     22304192                       # Cumulative packet size per connected master and slave (bytes)
system.tol2bus.pkt_size_system.cpu1.icache.mem_side::system.l2.cpu_side        89728                       # Cumulative packet size per connected master and slave (bytes)
system.tol2bus.pkt_size_system.cpu1.dcache.mem_side::system.l2.cpu_side   4038910272                       # Cumulative packet size per connected master and slave (bytes)
system.tol2bus.pkt_size::total             4061334784                       # Cumulative packet size per connected master and slave (bytes)
system.tol2bus.snoops                         1049495                       # Total snoops (count)
system.tol2bus.snoopTraffic                  42974016                       # Total snoop traffic (bytes)
system.tol2bus.snoop_fanout::samples         38425773                       # Request fanout histogram
system.tol2bus.snoop_fanout::mean            0.000036                       # Request fanout histogram
system.tol2bus.snoop_fanout::stdev           0.005967                       # Request fanout histogram
system.tol2bus.snoop_fanout::underflows             0      0.00%      0.00% # Request fanout histogram
system.tol2bus.snoop_fanout::0               38424405    100.00%    100.00% # Request fanout histogram
system.tol2bus.snoop_fanout::1                   1368      0.00%    100.00% # Request fanout histogram
system.tol2bus.snoop_fanout::2                      0      0.00%    100.00% # Request fanout histogram
system.tol2bus.snoop_fanout::3                      0      0.00%    100.00% # Request fanout histogram
system.tol2bus.snoop_fanout::4                      0      0.00%    100.00% # Request fanout histogram
system.tol2bus.snoop_fanout::5                      0      0.00%    100.00% # Request fanout histogram
system.tol2bus.snoop_fanout::6                      0      0.00%    100.00% # Request fanout histogram
system.tol2bus.snoop_fanout::7                      0      0.00%    100.00% # Request fanout histogram
system.tol2bus.snoop_fanout::8                      0      0.00%    100.00% # Request fanout histogram
system.tol2bus.snoop_fanout::overflows              0      0.00%    100.00% # Request fanout histogram
system.tol2bus.snoop_fanout::min_value              0                       # Request fanout histogram
system.tol2bus.snoop_fanout::max_value              1                       # Request fanout histogram
system.tol2bus.snoop_fanout::total           38425773                       # Request fanout histogram
system.tol2bus.reqLayer0.occupancy        63457874000                       # Layer occupancy (ticks)
system.tol2bus.reqLayer0.utilization              3.0                       # Layer utilization (%)
system.tol2bus.respLayer0.occupancy            687995                       # Layer occupancy (ticks)
system.tol2bus.respLayer0.utilization             0.0                       # Layer utilization (%)
system.tol2bus.respLayer1.occupancy         523480894                       # Layer occupancy (ticks)
system.tol2bus.respLayer1.utilization             0.0                       # Layer utilization (%)
system.tol2bus.respLayer4.occupancy           1436498                       # Layer occupancy (ticks)
system.tol2bus.respLayer4.utilization             0.0                       # Layer utilization (%)
system.tol2bus.respLayer5.occupancy       55540365000                       # Layer occupancy (ticks)
system.tol2bus.respLayer5.utilization             2.6                       # Layer utilization (%)

---------- End Simulation Statistics   ----------
