
---------- Begin Simulation Statistics ----------
final_tick                               1816222739553                       # Number of ticks from beginning of simulation (restored from checkpoints and never reset)
host_inst_rate                                 522453                       # Simulator instruction rate (inst/s)
host_mem_usage                                9712860                       # Number of bytes of host memory used
host_op_rate                                   816481                       # Simulator op (including micro ops) rate (op/s)
host_seconds                                  1967.24                       # Real time elapsed on the host
host_tick_rate                              923235919                       # Simulator tick rate (ticks/s)
sim_freq                                 1000000000000                       # Frequency of simulated ticks
sim_insts                                  1027788100                       # Number of instructions simulated
sim_ops                                    1606211168                       # Number of ops (including micro ops) simulated
sim_seconds                                  1.816223                       # Number of seconds simulated
sim_ticks                                1816222739553                       # Number of ticks simulated
system.cpu0.Branches                          2780018                       # Number of branches fetched
system.cpu0.committedInsts                   27788099                       # Number of instructions committed
system.cpu0.committedOps                     52797721                       # Number of ops (including micro ops) committed
system.cpu0.dtb.rdAccesses                   11113063                       # TLB accesses on read requests
system.cpu0.dtb.rdMisses                         5446                       # TLB misses on read requests
system.cpu0.dtb.wrAccesses                    5557395                       # TLB accesses on write requests
system.cpu0.dtb.wrMisses                            8                       # TLB misses on write requests
system.cpu0.idle_fraction                    0.962748                       # Percentage of idle cycles
system.cpu0.itb.rdAccesses                          0                       # TLB accesses on read requests
system.cpu0.itb.rdMisses                            0                       # TLB misses on read requests
system.cpu0.itb.wrAccesses                   38902351                       # TLB accesses on write requests
system.cpu0.itb.wrMisses                           46                       # TLB misses on write requests
system.cpu0.not_idle_fraction                0.037252                       # Percentage of non-idle cycles
system.cpu0.numCycles                       203179601                       # number of cpu cycles simulated
system.cpu0.numWorkItemsCompleted                   0                       # number of work items this cpu completed
system.cpu0.numWorkItemsStarted                     0                       # number of work items this cpu started
system.cpu0.num_busy_cycles              7568944.677344                       # Number of busy cycles
system.cpu0.num_cc_register_reads            13899961                       # number of times the CC registers were read
system.cpu0.num_cc_register_writes           16672913                       # number of times the CC registers were written
system.cpu0.num_conditional_control_insts      2779471                       # number of instructions that are conditional controls
system.cpu0.num_fp_alu_accesses                  1214                       # Number of float alu accesses
system.cpu0.num_fp_insts                         1214                       # number of float instructions
system.cpu0.num_fp_register_reads                1401                       # number of times the floating registers were read
system.cpu0.num_fp_register_writes                679                       # number of times the floating registers were written
system.cpu0.num_func_calls                        384                       # number of times a function call or return occured
system.cpu0.num_idle_cycles              195610656.322656                       # Number of idle cycles
system.cpu0.num_int_alu_accesses             52796880                       # Number of integer alu accesses
system.cpu0.num_int_insts                    52796880                       # number of integer instructions
system.cpu0.num_int_register_reads          105592520                       # number of times the integer registers were read
system.cpu0.num_int_register_writes          44459432                       # number of times the integer registers were written
system.cpu0.num_load_insts                   11113060                       # Number of load instructions
system.cpu0.num_mem_refs                     16670454                       # number of memory refs
system.cpu0.num_store_insts                   5557394                       # Number of store instructions
system.cpu0.num_vec_alu_accesses                    0                       # Number of vector alu accesses
system.cpu0.num_vec_insts                           0                       # number of vector instructions
system.cpu0.num_vec_register_reads                  0                       # number of times the vector registers were read
system.cpu0.num_vec_register_writes                 0                       # number of times the vector registers were written
system.cpu0.op_class::No_OpClass                  336      0.00%      0.00% # Class of executed instruction
system.cpu0.op_class::IntAlu                 36126368     68.42%     68.42% # Class of executed instruction
system.cpu0.op_class::IntMult                       5      0.00%     68.42% # Class of executed instruction
system.cpu0.op_class::IntDiv                       28      0.00%     68.42% # Class of executed instruction
system.cpu0.op_class::FloatAdd                    144      0.00%     68.43% # Class of executed instruction
system.cpu0.op_class::FloatCmp                      0      0.00%     68.43% # Class of executed instruction
system.cpu0.op_class::FloatCvt                      0      0.00%     68.43% # Class of executed instruction
system.cpu0.op_class::FloatMult                     0      0.00%     68.43% # Class of executed instruction
system.cpu0.op_class::FloatMultAcc                  0      0.00%     68.43% # Class of executed instruction
system.cpu0.op_class::FloatDiv                      0      0.00%     68.43% # Class of executed instruction
system.cpu0.op_class::FloatMisc                     0      0.00%     68.43% # Class of executed instruction
system.cpu0.op_class::FloatSqrt                     0      0.00%     68.43% # Class of executed instruction
system.cpu0.op_class::SimdAdd                       0      0.00%     68.43% # Class of executed instruction
system.cpu0.op_class::SimdAddAcc                    0      0.00%     68.43% # Class of executed instruction
system.cpu0.op_class::SimdAlu                     104      0.00%     68.43% # Class of executed instruction
system.cpu0.op_class::SimdCmp                       0      0.00%     68.43% # Class of executed instruction
system.cpu0.op_class::SimdCvt                      54      0.00%     68.43% # Class of executed instruction
system.cpu0.op_class::SimdMisc                    228      0.00%     68.43% # Class of executed instruction
system.cpu0.op_class::SimdMult                      0      0.00%     68.43% # Class of executed instruction
system.cpu0.op_class::SimdMultAcc                   0      0.00%     68.43% # Class of executed instruction
system.cpu0.op_class::SimdShift                     0      0.00%     68.43% # Class of executed instruction
system.cpu0.op_class::SimdShiftAcc                  0      0.00%     68.43% # Class of executed instruction
system.cpu0.op_class::SimdDiv                       0      0.00%     68.43% # Class of executed instruction
system.cpu0.op_class::SimdSqrt                      0      0.00%     68.43% # Class of executed instruction
system.cpu0.op_class::SimdFloatAdd                  0      0.00%     68.43% # Class of executed instruction
system.cpu0.op_class::SimdFloatAlu                  0      0.00%     68.43% # Class of executed instruction
system.cpu0.op_class::SimdFloatCmp                  0      0.00%     68.43% # Class of executed instruction
system.cpu0.op_class::SimdFloatCvt                  0      0.00%     68.43% # Class of executed instruction
system.cpu0.op_class::SimdFloatDiv                  0      0.00%     68.43% # Class of executed instruction
system.cpu0.op_class::SimdFloatMisc                 0      0.00%     68.43% # Class of executed instruction
system.cpu0.op_class::SimdFloatMult                 0      0.00%     68.43% # Class of executed instruction
system.cpu0.op_class::SimdFloatMultAcc              0      0.00%     68.43% # Class of executed instruction
system.cpu0.op_class::SimdFloatSqrt                 0      0.00%     68.43% # Class of executed instruction
system.cpu0.op_class::SimdReduceAdd                 0      0.00%     68.43% # Class of executed instruction
system.cpu0.op_class::SimdReduceAlu                 0      0.00%     68.43% # Class of executed instruction
system.cpu0.op_class::SimdReduceCmp                 0      0.00%     68.43% # Class of executed instruction
system.cpu0.op_class::SimdFloatReduceAdd            0      0.00%     68.43% # Class of executed instruction
system.cpu0.op_class::SimdFloatReduceCmp            0      0.00%     68.43% # Class of executed instruction
system.cpu0.op_class::SimdAes                       0      0.00%     68.43% # Class of executed instruction
system.cpu0.op_class::SimdAesMix                    0      0.00%     68.43% # Class of executed instruction
system.cpu0.op_class::SimdSha1Hash                  0      0.00%     68.43% # Class of executed instruction
system.cpu0.op_class::SimdSha1Hash2                 0      0.00%     68.43% # Class of executed instruction
system.cpu0.op_class::SimdSha256Hash                0      0.00%     68.43% # Class of executed instruction
system.cpu0.op_class::SimdSha256Hash2               0      0.00%     68.43% # Class of executed instruction
system.cpu0.op_class::SimdShaSigma2                 0      0.00%     68.43% # Class of executed instruction
system.cpu0.op_class::SimdShaSigma3                 0      0.00%     68.43% # Class of executed instruction
system.cpu0.op_class::SimdPredAlu                   0      0.00%     68.43% # Class of executed instruction
system.cpu0.op_class::MemRead                11113000     21.05%     89.47% # Class of executed instruction
system.cpu0.op_class::MemWrite                5556913     10.52%    100.00% # Class of executed instruction
system.cpu0.op_class::FloatMemRead                 60      0.00%    100.00% # Class of executed instruction
system.cpu0.op_class::FloatMemWrite               481      0.00%    100.00% # Class of executed instruction
system.cpu0.op_class::IprAccess                     0      0.00%    100.00% # Class of executed instruction
system.cpu0.op_class::InstPrefetch                  0      0.00%    100.00% # Class of executed instruction
system.cpu0.op_class::total                  52797721                       # Class of executed instruction
system.cpu0.workload.numSyscalls                   12                       # Number of system calls
system.cpu1.Branches                        105943926                       # Number of branches fetched
system.cpu1.committedInsts                 1000000001                       # Number of instructions committed
system.cpu1.committedOps                   1553413447                       # Number of ops (including micro ops) committed
system.cpu1.dtb.rdAccesses                  298173263                       # TLB accesses on read requests
system.cpu1.dtb.rdMisses                         7447                       # TLB misses on read requests
system.cpu1.dtb.wrAccesses                  134478866                       # TLB accesses on write requests
system.cpu1.dtb.wrMisses                         2115                       # TLB misses on write requests
system.cpu1.idle_fraction                           0                       # Percentage of idle cycles
system.cpu1.itb.rdAccesses                          0                       # TLB accesses on read requests
system.cpu1.itb.rdMisses                            0                       # TLB misses on read requests
system.cpu1.itb.wrAccesses                 1346437696                       # TLB accesses on write requests
system.cpu1.itb.wrMisses                          188                       # TLB misses on write requests
system.cpu1.not_idle_fraction                       1                       # Percentage of non-idle cycles
system.cpu1.numCycles                      5454122341                       # number of cpu cycles simulated
system.cpu1.numWorkItemsCompleted                   0                       # number of work items this cpu completed
system.cpu1.numWorkItemsStarted                     0                       # number of work items this cpu started
system.cpu1.num_busy_cycles                5454122341                       # Number of busy cycles
system.cpu1.num_cc_register_reads           810731249                       # number of times the CC registers were read
system.cpu1.num_cc_register_writes          826147910                       # number of times the CC registers were written
system.cpu1.num_conditional_control_insts     63413623                       # number of instructions that are conditional controls
system.cpu1.num_fp_alu_accesses              63978436                       # Number of float alu accesses
system.cpu1.num_fp_insts                     63978436                       # number of float instructions
system.cpu1.num_fp_register_reads            68263228                       # number of times the floating registers were read
system.cpu1.num_fp_register_writes           54957000                       # number of times the floating registers were written
system.cpu1.num_func_calls                   40092444                       # number of times a function call or return occured
system.cpu1.num_idle_cycles                         0                       # Number of idle cycles
system.cpu1.num_int_alu_accesses           1494887904                       # Number of integer alu accesses
system.cpu1.num_int_insts                  1494887904                       # number of integer instructions
system.cpu1.num_int_register_reads         3379609145                       # number of times the integer registers were read
system.cpu1.num_int_register_writes        1238607035                       # number of times the integer registers were written
system.cpu1.num_load_insts                  298159878                       # Number of load instructions
system.cpu1.num_mem_refs                    432636844                       # number of memory refs
system.cpu1.num_store_insts                 134476966                       # Number of store instructions
system.cpu1.num_vec_alu_accesses                    0                       # Number of vector alu accesses
system.cpu1.num_vec_insts                           0                       # number of vector instructions
system.cpu1.num_vec_register_reads                  0                       # number of times the vector registers were read
system.cpu1.num_vec_register_writes                 0                       # number of times the vector registers were written
system.cpu1.op_class::No_OpClass             20529387      1.32%      1.32% # Class of executed instruction
system.cpu1.op_class::IntAlu               1049156898     67.54%     68.86% # Class of executed instruction
system.cpu1.op_class::IntMult                  268761      0.02%     68.88% # Class of executed instruction
system.cpu1.op_class::IntDiv                   237032      0.02%     68.89% # Class of executed instruction
system.cpu1.op_class::FloatAdd               16790476      1.08%     69.97% # Class of executed instruction
system.cpu1.op_class::FloatCmp                      0      0.00%     69.97% # Class of executed instruction
system.cpu1.op_class::FloatCvt                      0      0.00%     69.97% # Class of executed instruction
system.cpu1.op_class::FloatMult                     0      0.00%     69.97% # Class of executed instruction
system.cpu1.op_class::FloatMultAcc                  0      0.00%     69.97% # Class of executed instruction
system.cpu1.op_class::FloatDiv                      0      0.00%     69.97% # Class of executed instruction
system.cpu1.op_class::FloatMisc                     0      0.00%     69.97% # Class of executed instruction
system.cpu1.op_class::FloatSqrt                     0      0.00%     69.97% # Class of executed instruction
system.cpu1.op_class::SimdAdd                   20512      0.00%     69.98% # Class of executed instruction
system.cpu1.op_class::SimdAddAcc                    0      0.00%     69.98% # Class of executed instruction
system.cpu1.op_class::SimdAlu                   62606      0.00%     69.98% # Class of executed instruction
system.cpu1.op_class::SimdCmp                      18      0.00%     69.98% # Class of executed instruction
system.cpu1.op_class::SimdCvt                   11198      0.00%     69.98% # Class of executed instruction
system.cpu1.op_class::SimdMisc               33600414      2.16%     72.14% # Class of executed instruction
system.cpu1.op_class::SimdMult                      0      0.00%     72.14% # Class of executed instruction
system.cpu1.op_class::SimdMultAcc                   0      0.00%     72.14% # Class of executed instruction
system.cpu1.op_class::SimdShift                 28404      0.00%     72.14% # Class of executed instruction
system.cpu1.op_class::SimdShiftAcc                  0      0.00%     72.14% # Class of executed instruction
system.cpu1.op_class::SimdDiv                       0      0.00%     72.14% # Class of executed instruction
system.cpu1.op_class::SimdSqrt                      0      0.00%     72.14% # Class of executed instruction
system.cpu1.op_class::SimdFloatAdd              11959      0.00%     72.15% # Class of executed instruction
system.cpu1.op_class::SimdFloatAlu                  0      0.00%     72.15% # Class of executed instruction
system.cpu1.op_class::SimdFloatCmp                  0      0.00%     72.15% # Class of executed instruction
system.cpu1.op_class::SimdFloatCvt              47328      0.00%     72.15% # Class of executed instruction
system.cpu1.op_class::SimdFloatDiv                192      0.00%     72.15% # Class of executed instruction
system.cpu1.op_class::SimdFloatMisc                 0      0.00%     72.15% # Class of executed instruction
system.cpu1.op_class::SimdFloatMult             11418      0.00%     72.15% # Class of executed instruction
system.cpu1.op_class::SimdFloatMultAcc              0      0.00%     72.15% # Class of executed instruction
system.cpu1.op_class::SimdFloatSqrt                 0      0.00%     72.15% # Class of executed instruction
system.cpu1.op_class::SimdReduceAdd                 0      0.00%     72.15% # Class of executed instruction
system.cpu1.op_class::SimdReduceAlu                 0      0.00%     72.15% # Class of executed instruction
system.cpu1.op_class::SimdReduceCmp                 0      0.00%     72.15% # Class of executed instruction
system.cpu1.op_class::SimdFloatReduceAdd            0      0.00%     72.15% # Class of executed instruction
system.cpu1.op_class::SimdFloatReduceCmp            0      0.00%     72.15% # Class of executed instruction
system.cpu1.op_class::SimdAes                       0      0.00%     72.15% # Class of executed instruction
system.cpu1.op_class::SimdAesMix                    0      0.00%     72.15% # Class of executed instruction
system.cpu1.op_class::SimdSha1Hash                  0      0.00%     72.15% # Class of executed instruction
system.cpu1.op_class::SimdSha1Hash2                 0      0.00%     72.15% # Class of executed instruction
system.cpu1.op_class::SimdSha256Hash                0      0.00%     72.15% # Class of executed instruction
system.cpu1.op_class::SimdSha256Hash2               0      0.00%     72.15% # Class of executed instruction
system.cpu1.op_class::SimdShaSigma2                 0      0.00%     72.15% # Class of executed instruction
system.cpu1.op_class::SimdShaSigma3                 0      0.00%     72.15% # Class of executed instruction
system.cpu1.op_class::SimdPredAlu                   0      0.00%     72.15% # Class of executed instruction
system.cpu1.op_class::MemRead               297979081     19.18%     91.33% # Class of executed instruction
system.cpu1.op_class::MemWrite              125484173      8.08%     99.41% # Class of executed instruction
system.cpu1.op_class::FloatMemRead             180797      0.01%     99.42% # Class of executed instruction
system.cpu1.op_class::FloatMemWrite           8992793      0.58%    100.00% # Class of executed instruction
system.cpu1.op_class::IprAccess                     0      0.00%    100.00% # Class of executed instruction
system.cpu1.op_class::InstPrefetch                  0      0.00%    100.00% # Class of executed instruction
system.cpu1.op_class::total                1553413447                       # Class of executed instruction
system.cpu1.workload.numSyscalls                   19                       # Number of system calls
system.membus.snoop_filter.hit_multi_requests            0                       # Number of requests hitting in the snoop filter with multiple (>1) holders of the requested data.
system.membus.snoop_filter.hit_multi_snoops            0                       # Number of snoops hitting in the snoop filter with multiple (>1) holders of the requested data.
system.membus.snoop_filter.hit_single_requests       206477                       # Number of requests hitting in the snoop filter with a single holder of the requested data.
system.membus.snoop_filter.hit_single_snoops            0                       # Number of snoops hitting in the snoop filter with a single holder of the requested data.
system.membus.snoop_filter.tot_requests        675155                       # Total number of requests made to the snoop filter.
system.membus.snoop_filter.tot_snoops               0                       # Total number of snoops made to the snoop filter.
system.tol2bus.snoop_filter.hit_multi_requests            0                       # Number of requests hitting in the snoop filter with multiple (>1) holders of the requested data.
system.tol2bus.snoop_filter.hit_multi_snoops            0                       # Number of snoops hitting in the snoop filter with multiple (>1) holders of the requested data.
system.tol2bus.snoop_filter.hit_single_requests     59466225                       # Number of requests hitting in the snoop filter with a single holder of the requested data.
system.tol2bus.snoop_filter.hit_single_snoops          938                       # Number of snoops hitting in the snoop filter with a single holder of the requested data.
system.tol2bus.snoop_filter.tot_requests    118933409                       # Total number of requests made to the snoop filter.
system.tol2bus.snoop_filter.tot_snoops            938                       # Total number of snoops made to the snoop filter.
system.membus.pwrStateResidencyTicks::UNDEFINED 1816222739553                       # Cumulative time (in ticks) in various power states
system.membus.trans_dist::ReadResp             350821                       # Transaction distribution
system.membus.trans_dist::WritebackDirty        30620                       # Transaction distribution
system.membus.trans_dist::CleanEvict           175857                       # Transaction distribution
system.membus.trans_dist::ReadExReq            117857                       # Transaction distribution
system.membus.trans_dist::ReadExResp           117857                       # Transaction distribution
system.membus.trans_dist::ReadSharedReq        350821                       # Transaction distribution
system.membus.pkt_count_system.l2.mem_side::system.mem_ctrls.port      1143833                       # Packet count per connected master and slave (bytes)
system.membus.pkt_count_system.l2.mem_side::total      1143833                       # Packet count per connected master and slave (bytes)
system.membus.pkt_count::total                1143833                       # Packet count per connected master and slave (bytes)
system.membus.pkt_size_system.l2.mem_side::system.mem_ctrls.port     31955072                       # Cumulative packet size per connected master and slave (bytes)
system.membus.pkt_size_system.l2.mem_side::total     31955072                       # Cumulative packet size per connected master and slave (bytes)
system.membus.pkt_size::total                31955072                       # Cumulative packet size per connected master and slave (bytes)
system.membus.snoops                                0                       # Total snoops (count)
system.membus.snoopTraffic                          0                       # Total snoop traffic (bytes)
system.membus.snoop_fanout::samples            468678                       # Request fanout histogram
system.membus.snoop_fanout::mean                    0                       # Request fanout histogram
system.membus.snoop_fanout::stdev                   0                       # Request fanout histogram
system.membus.snoop_fanout::underflows              0      0.00%      0.00% # Request fanout histogram
system.membus.snoop_fanout::0                  468678    100.00%    100.00% # Request fanout histogram
system.membus.snoop_fanout::1                       0      0.00%    100.00% # Request fanout histogram
system.membus.snoop_fanout::overflows               0      0.00%    100.00% # Request fanout histogram
system.membus.snoop_fanout::min_value               0                       # Request fanout histogram
system.membus.snoop_fanout::max_value               0                       # Request fanout histogram
system.membus.snoop_fanout::total              468678                       # Request fanout histogram
system.membus.reqLayer4.occupancy          1142355610                       # Layer occupancy (ticks)
system.membus.reqLayer4.utilization               0.1                       # Layer utilization (%)
system.membus.respLayer1.occupancy         2507277873                       # Layer occupancy (ticks)
system.membus.respLayer1.utilization              0.1                       # Layer utilization (%)
system.voltage_domain.voltage                       1                       # Voltage in Volts
system.clk_domain.clock                          1000                       # Clock period in ticks
system.cpu0.numPwrStateTransitions                  1                       # Number of power state transitions
system.cpu0.pwrStateResidencyTicks::ON   1816222739553                       # Cumulative time (in ticks) in various power states
system.cpu0.icache.pwrStateResidencyTicks::UNDEFINED 1816222739553                       # Cumulative time (in ticks) in various power states
system.cpu0.icache.demand_hits::.cpu0.inst     38901902                       # number of demand (read+write) hits
system.cpu0.icache.demand_hits::total        38901902                       # number of demand (read+write) hits
system.cpu0.icache.overall_hits::.cpu0.inst     38901902                       # number of overall hits
system.cpu0.icache.overall_hits::total       38901902                       # number of overall hits
system.cpu0.icache.demand_misses::.cpu0.inst          449                       # number of demand (read+write) misses
system.cpu0.icache.demand_misses::total           449                       # number of demand (read+write) misses
system.cpu0.icache.overall_misses::.cpu0.inst          449                       # number of overall misses
system.cpu0.icache.overall_misses::total          449                       # number of overall misses
system.cpu0.icache.demand_miss_latency::.cpu0.inst     38527101                       # number of demand (read+write) miss cycles
system.cpu0.icache.demand_miss_latency::total     38527101                       # number of demand (read+write) miss cycles
system.cpu0.icache.overall_miss_latency::.cpu0.inst     38527101                       # number of overall miss cycles
system.cpu0.icache.overall_miss_latency::total     38527101                       # number of overall miss cycles
system.cpu0.icache.demand_accesses::.cpu0.inst     38902351                       # number of demand (read+write) accesses
system.cpu0.icache.demand_accesses::total     38902351                       # number of demand (read+write) accesses
system.cpu0.icache.overall_accesses::.cpu0.inst     38902351                       # number of overall (read+write) accesses
system.cpu0.icache.overall_accesses::total     38902351                       # number of overall (read+write) accesses
system.cpu0.icache.demand_miss_rate::.cpu0.inst     0.000012                       # miss rate for demand accesses
system.cpu0.icache.demand_miss_rate::total     0.000012                       # miss rate for demand accesses
system.cpu0.icache.overall_miss_rate::.cpu0.inst     0.000012                       # miss rate for overall accesses
system.cpu0.icache.overall_miss_rate::total     0.000012                       # miss rate for overall accesses
system.cpu0.icache.demand_avg_miss_latency::.cpu0.inst 85806.461024                       # average overall miss latency
system.cpu0.icache.demand_avg_miss_latency::total 85806.461024                       # average overall miss latency
system.cpu0.icache.overall_avg_miss_latency::.cpu0.inst 85806.461024                       # average overall miss latency
system.cpu0.icache.overall_avg_miss_latency::total 85806.461024                       # average overall miss latency
system.cpu0.icache.blocked_cycles::no_mshrs            0                       # number of cycles access was blocked
system.cpu0.icache.blocked_cycles::no_targets            0                       # number of cycles access was blocked
system.cpu0.icache.blocked::no_mshrs                0                       # number of cycles access was blocked
system.cpu0.icache.blocked::no_targets              0                       # number of cycles access was blocked
system.cpu0.icache.avg_blocked_cycles::no_mshrs          nan                       # average number of cycles each access was blocked
system.cpu0.icache.avg_blocked_cycles::no_targets          nan                       # average number of cycles each access was blocked
system.cpu0.icache.writebacks::.writebacks           18                       # number of writebacks
system.cpu0.icache.writebacks::total               18                       # number of writebacks
system.cpu0.icache.demand_mshr_misses::.cpu0.inst          449                       # number of demand (read+write) MSHR misses
system.cpu0.icache.demand_mshr_misses::total          449                       # number of demand (read+write) MSHR misses
system.cpu0.icache.overall_mshr_misses::.cpu0.inst          449                       # number of overall MSHR misses
system.cpu0.icache.overall_mshr_misses::total          449                       # number of overall MSHR misses
system.cpu0.icache.demand_mshr_miss_latency::.cpu0.inst     38228067                       # number of demand (read+write) MSHR miss cycles
system.cpu0.icache.demand_mshr_miss_latency::total     38228067                       # number of demand (read+write) MSHR miss cycles
system.cpu0.icache.overall_mshr_miss_latency::.cpu0.inst     38228067                       # number of overall MSHR miss cycles
system.cpu0.icache.overall_mshr_miss_latency::total     38228067                       # number of overall MSHR miss cycles
system.cpu0.icache.demand_mshr_miss_rate::.cpu0.inst     0.000012                       # mshr miss rate for demand accesses
system.cpu0.icache.demand_mshr_miss_rate::total     0.000012                       # mshr miss rate for demand accesses
system.cpu0.icache.overall_mshr_miss_rate::.cpu0.inst     0.000012                       # mshr miss rate for overall accesses
system.cpu0.icache.overall_mshr_miss_rate::total     0.000012                       # mshr miss rate for overall accesses
system.cpu0.icache.demand_avg_mshr_miss_latency::.cpu0.inst 85140.461024                       # average overall mshr miss latency
system.cpu0.icache.demand_avg_mshr_miss_latency::total 85140.461024                       # average overall mshr miss latency
system.cpu0.icache.overall_avg_mshr_miss_latency::.cpu0.inst 85140.461024                       # average overall mshr miss latency
system.cpu0.icache.overall_avg_mshr_miss_latency::total 85140.461024                       # average overall mshr miss latency
system.cpu0.icache.replacements                    18                       # number of replacements
system.cpu0.icache.ReadReq_hits::.cpu0.inst     38901902                       # number of ReadReq hits
system.cpu0.icache.ReadReq_hits::total       38901902                       # number of ReadReq hits
system.cpu0.icache.ReadReq_misses::.cpu0.inst          449                       # number of ReadReq misses
system.cpu0.icache.ReadReq_misses::total          449                       # number of ReadReq misses
system.cpu0.icache.ReadReq_miss_latency::.cpu0.inst     38527101                       # number of ReadReq miss cycles
system.cpu0.icache.ReadReq_miss_latency::total     38527101                       # number of ReadReq miss cycles
system.cpu0.icache.ReadReq_accesses::.cpu0.inst     38902351                       # number of ReadReq accesses(hits+misses)
system.cpu0.icache.ReadReq_accesses::total     38902351                       # number of ReadReq accesses(hits+misses)
system.cpu0.icache.ReadReq_miss_rate::.cpu0.inst     0.000012                       # miss rate for ReadReq accesses
system.cpu0.icache.ReadReq_miss_rate::total     0.000012                       # miss rate for ReadReq accesses
system.cpu0.icache.ReadReq_avg_miss_latency::.cpu0.inst 85806.461024                       # average ReadReq miss latency
system.cpu0.icache.ReadReq_avg_miss_latency::total 85806.461024                       # average ReadReq miss latency
system.cpu0.icache.ReadReq_mshr_misses::.cpu0.inst          449                       # number of ReadReq MSHR misses
system.cpu0.icache.ReadReq_mshr_misses::total          449                       # number of ReadReq MSHR misses
system.cpu0.icache.ReadReq_mshr_miss_latency::.cpu0.inst     38228067                       # number of ReadReq MSHR miss cycles
system.cpu0.icache.ReadReq_mshr_miss_latency::total     38228067                       # number of ReadReq MSHR miss cycles
system.cpu0.icache.ReadReq_mshr_miss_rate::.cpu0.inst     0.000012                       # mshr miss rate for ReadReq accesses
system.cpu0.icache.ReadReq_mshr_miss_rate::total     0.000012                       # mshr miss rate for ReadReq accesses
system.cpu0.icache.ReadReq_avg_mshr_miss_latency::.cpu0.inst 85140.461024                       # average ReadReq mshr miss latency
system.cpu0.icache.ReadReq_avg_mshr_miss_latency::total 85140.461024                       # average ReadReq mshr miss latency
system.cpu0.icache.tags.pwrStateResidencyTicks::UNDEFINED 1816222739553                       # Cumulative time (in ticks) in various power states
system.cpu0.icache.tags.tagsinuse          427.902638                       # Cycle average of tags in use
system.cpu0.icache.tags.total_refs           38902351                       # Total number of references to valid blocks.
system.cpu0.icache.tags.sampled_refs              449                       # Sample count of references to valid blocks.
system.cpu0.icache.tags.avg_refs         86642.207127                       # Average number of references to valid blocks.
system.cpu0.icache.tags.warmup_cycle            83250                       # Cycle when the warmup percentage was hit.
system.cpu0.icache.tags.occ_blocks::.cpu0.inst   427.902638                       # Average occupied blocks per requestor
system.cpu0.icache.tags.occ_percent::.cpu0.inst     0.835747                       # Average percentage of cache occupancy
system.cpu0.icache.tags.occ_percent::total     0.835747                       # Average percentage of cache occupancy
system.cpu0.icache.tags.occ_task_id_blocks::1024          431                       # Occupied blocks per task id
system.cpu0.icache.tags.age_task_id_blocks_1024::4          431                       # Occupied blocks per task id
system.cpu0.icache.tags.occ_task_id_percent::1024     0.841797                       # Percentage of cache occupancy per task id
system.cpu0.icache.tags.tag_accesses        311219257                       # Number of tag accesses
system.cpu0.icache.tags.data_accesses       311219257                       # Number of data accesses
system.cpu0.icache.tags.repl_invalid                0                       # Number of initial replacements
system.cpu0.icache.tags.repl_valid_tag              0                       # Number of local replacements
system.cpu0.icache.tags.repl_valid_data             0                       # Number of global replacements
system.cpu0.dtb.walker.pwrStateResidencyTicks::UNDEFINED 1816222739553                       # Cumulative time (in ticks) in various power states
system.cpu0.interrupts.clk_domain.clock          5328                       # Clock period in ticks
system.cpu0.itb_walker_cache.pwrStateResidencyTicks::UNDEFINED 1816222739553                       # Cumulative time (in ticks) in various power states
system.cpu0.itb_walker_cache.blocked_cycles::no_mshrs            0                       # number of cycles access was blocked
system.cpu0.itb_walker_cache.blocked_cycles::no_targets            0                       # number of cycles access was blocked
system.cpu0.itb_walker_cache.blocked::no_mshrs            0                       # number of cycles access was blocked
system.cpu0.itb_walker_cache.blocked::no_targets            0                       # number of cycles access was blocked
system.cpu0.itb_walker_cache.avg_blocked_cycles::no_mshrs          nan                       # average number of cycles each access was blocked
system.cpu0.itb_walker_cache.avg_blocked_cycles::no_targets          nan                       # average number of cycles each access was blocked
system.cpu0.itb_walker_cache.replacements            0                       # number of replacements
system.cpu0.itb_walker_cache.tags.pwrStateResidencyTicks::UNDEFINED 1816222739553                       # Cumulative time (in ticks) in various power states
system.cpu0.itb_walker_cache.tags.tagsinuse            0                       # Cycle average of tags in use
system.cpu0.itb_walker_cache.tags.total_refs            0                       # Total number of references to valid blocks.
system.cpu0.itb_walker_cache.tags.sampled_refs            0                       # Sample count of references to valid blocks.
system.cpu0.itb_walker_cache.tags.avg_refs          nan                       # Average number of references to valid blocks.
system.cpu0.itb_walker_cache.tags.warmup_cycle            0                       # Cycle when the warmup percentage was hit.
system.cpu0.itb_walker_cache.tags.tag_accesses            0                       # Number of tag accesses
system.cpu0.itb_walker_cache.tags.data_accesses            0                       # Number of data accesses
system.cpu0.itb_walker_cache.tags.repl_invalid            0                       # Number of initial replacements
system.cpu0.itb_walker_cache.tags.repl_valid_tag            0                       # Number of local replacements
system.cpu0.itb_walker_cache.tags.repl_valid_data            0                       # Number of global replacements
system.cpu0.itb.walker.pwrStateResidencyTicks::UNDEFINED 1816222739553                       # Cumulative time (in ticks) in various power states
system.cpu0.dtb_walker_cache.pwrStateResidencyTicks::UNDEFINED 1816222739553                       # Cumulative time (in ticks) in various power states
system.cpu0.dtb_walker_cache.blocked_cycles::no_mshrs            0                       # number of cycles access was blocked
system.cpu0.dtb_walker_cache.blocked_cycles::no_targets            0                       # number of cycles access was blocked
system.cpu0.dtb_walker_cache.blocked::no_mshrs            0                       # number of cycles access was blocked
system.cpu0.dtb_walker_cache.blocked::no_targets            0                       # number of cycles access was blocked
system.cpu0.dtb_walker_cache.avg_blocked_cycles::no_mshrs          nan                       # average number of cycles each access was blocked
system.cpu0.dtb_walker_cache.avg_blocked_cycles::no_targets          nan                       # average number of cycles each access was blocked
system.cpu0.dtb_walker_cache.replacements            0                       # number of replacements
system.cpu0.dtb_walker_cache.tags.pwrStateResidencyTicks::UNDEFINED 1816222739553                       # Cumulative time (in ticks) in various power states
system.cpu0.dtb_walker_cache.tags.tagsinuse            0                       # Cycle average of tags in use
system.cpu0.dtb_walker_cache.tags.total_refs            0                       # Total number of references to valid blocks.
system.cpu0.dtb_walker_cache.tags.sampled_refs            0                       # Sample count of references to valid blocks.
system.cpu0.dtb_walker_cache.tags.avg_refs          nan                       # Average number of references to valid blocks.
system.cpu0.dtb_walker_cache.tags.warmup_cycle            0                       # Cycle when the warmup percentage was hit.
system.cpu0.dtb_walker_cache.tags.tag_accesses            0                       # Number of tag accesses
system.cpu0.dtb_walker_cache.tags.data_accesses            0                       # Number of data accesses
system.cpu0.dtb_walker_cache.tags.repl_invalid            0                       # Number of initial replacements
system.cpu0.dtb_walker_cache.tags.repl_valid_tag            0                       # Number of local replacements
system.cpu0.dtb_walker_cache.tags.repl_valid_data            0                       # Number of global replacements
system.cpu0.dcache.pwrStateResidencyTicks::UNDEFINED 1816222739553                       # Cumulative time (in ticks) in various power states
system.cpu0.dcache.demand_hits::.cpu0.data     16322542                       # number of demand (read+write) hits
system.cpu0.dcache.demand_hits::total        16322542                       # number of demand (read+write) hits
system.cpu0.dcache.overall_hits::.cpu0.data     16322542                       # number of overall hits
system.cpu0.dcache.overall_hits::total       16322542                       # number of overall hits
system.cpu0.dcache.demand_misses::.cpu0.data       347916                       # number of demand (read+write) misses
system.cpu0.dcache.demand_misses::total        347916                       # number of demand (read+write) misses
system.cpu0.dcache.overall_misses::.cpu0.data       347916                       # number of overall misses
system.cpu0.dcache.overall_misses::total       347916                       # number of overall misses
system.cpu0.dcache.demand_miss_latency::.cpu0.data  30840823638                       # number of demand (read+write) miss cycles
system.cpu0.dcache.demand_miss_latency::total  30840823638                       # number of demand (read+write) miss cycles
system.cpu0.dcache.overall_miss_latency::.cpu0.data  30840823638                       # number of overall miss cycles
system.cpu0.dcache.overall_miss_latency::total  30840823638                       # number of overall miss cycles
system.cpu0.dcache.demand_accesses::.cpu0.data     16670458                       # number of demand (read+write) accesses
system.cpu0.dcache.demand_accesses::total     16670458                       # number of demand (read+write) accesses
system.cpu0.dcache.overall_accesses::.cpu0.data     16670458                       # number of overall (read+write) accesses
system.cpu0.dcache.overall_accesses::total     16670458                       # number of overall (read+write) accesses
system.cpu0.dcache.demand_miss_rate::.cpu0.data     0.020870                       # miss rate for demand accesses
system.cpu0.dcache.demand_miss_rate::total     0.020870                       # miss rate for demand accesses
system.cpu0.dcache.overall_miss_rate::.cpu0.data     0.020870                       # miss rate for overall accesses
system.cpu0.dcache.overall_miss_rate::total     0.020870                       # miss rate for overall accesses
system.cpu0.dcache.demand_avg_miss_latency::.cpu0.data 88644.453368                       # average overall miss latency
system.cpu0.dcache.demand_avg_miss_latency::total 88644.453368                       # average overall miss latency
system.cpu0.dcache.overall_avg_miss_latency::.cpu0.data 88644.453368                       # average overall miss latency
system.cpu0.dcache.overall_avg_miss_latency::total 88644.453368                       # average overall miss latency
system.cpu0.dcache.blocked_cycles::no_mshrs            0                       # number of cycles access was blocked
system.cpu0.dcache.blocked_cycles::no_targets            0                       # number of cycles access was blocked
system.cpu0.dcache.blocked::no_mshrs                0                       # number of cycles access was blocked
system.cpu0.dcache.blocked::no_targets              0                       # number of cycles access was blocked
system.cpu0.dcache.avg_blocked_cycles::no_mshrs          nan                       # average number of cycles each access was blocked
system.cpu0.dcache.avg_blocked_cycles::no_targets          nan                       # average number of cycles each access was blocked
system.cpu0.dcache.writebacks::.writebacks          535                       # number of writebacks
system.cpu0.dcache.writebacks::total              535                       # number of writebacks
system.cpu0.dcache.demand_mshr_misses::.cpu0.data       347916                       # number of demand (read+write) MSHR misses
system.cpu0.dcache.demand_mshr_misses::total       347916                       # number of demand (read+write) MSHR misses
system.cpu0.dcache.overall_mshr_misses::.cpu0.data       347916                       # number of overall MSHR misses
system.cpu0.dcache.overall_mshr_misses::total       347916                       # number of overall MSHR misses
system.cpu0.dcache.demand_mshr_miss_latency::.cpu0.data  30609111582                       # number of demand (read+write) MSHR miss cycles
system.cpu0.dcache.demand_mshr_miss_latency::total  30609111582                       # number of demand (read+write) MSHR miss cycles
system.cpu0.dcache.overall_mshr_miss_latency::.cpu0.data  30609111582                       # number of overall MSHR miss cycles
system.cpu0.dcache.overall_mshr_miss_latency::total  30609111582                       # number of overall MSHR miss cycles
system.cpu0.dcache.demand_mshr_miss_rate::.cpu0.data     0.020870                       # mshr miss rate for demand accesses
system.cpu0.dcache.demand_mshr_miss_rate::total     0.020870                       # mshr miss rate for demand accesses
system.cpu0.dcache.overall_mshr_miss_rate::.cpu0.data     0.020870                       # mshr miss rate for overall accesses
system.cpu0.dcache.overall_mshr_miss_rate::total     0.020870                       # mshr miss rate for overall accesses
system.cpu0.dcache.demand_avg_mshr_miss_latency::.cpu0.data 87978.453368                       # average overall mshr miss latency
system.cpu0.dcache.demand_avg_mshr_miss_latency::total 87978.453368                       # average overall mshr miss latency
system.cpu0.dcache.overall_avg_mshr_miss_latency::.cpu0.data 87978.453368                       # average overall mshr miss latency
system.cpu0.dcache.overall_avg_mshr_miss_latency::total 87978.453368                       # average overall mshr miss latency
system.cpu0.dcache.replacements                347908                       # number of replacements
system.cpu0.dcache.ReadReq_hits::.cpu0.data     10765403                       # number of ReadReq hits
system.cpu0.dcache.ReadReq_hits::total       10765403                       # number of ReadReq hits
system.cpu0.dcache.ReadReq_misses::.cpu0.data       347660                       # number of ReadReq misses
system.cpu0.dcache.ReadReq_misses::total       347660                       # number of ReadReq misses
system.cpu0.dcache.ReadReq_miss_latency::.cpu0.data  30829758048                       # number of ReadReq miss cycles
system.cpu0.dcache.ReadReq_miss_latency::total  30829758048                       # number of ReadReq miss cycles
system.cpu0.dcache.ReadReq_accesses::.cpu0.data     11113063                       # number of ReadReq accesses(hits+misses)
system.cpu0.dcache.ReadReq_accesses::total     11113063                       # number of ReadReq accesses(hits+misses)
system.cpu0.dcache.ReadReq_miss_rate::.cpu0.data     0.031284                       # miss rate for ReadReq accesses
system.cpu0.dcache.ReadReq_miss_rate::total     0.031284                       # miss rate for ReadReq accesses
system.cpu0.dcache.ReadReq_avg_miss_latency::.cpu0.data 88677.898084                       # average ReadReq miss latency
system.cpu0.dcache.ReadReq_avg_miss_latency::total 88677.898084                       # average ReadReq miss latency
system.cpu0.dcache.ReadReq_mshr_misses::.cpu0.data       347660                       # number of ReadReq MSHR misses
system.cpu0.dcache.ReadReq_mshr_misses::total       347660                       # number of ReadReq MSHR misses
system.cpu0.dcache.ReadReq_mshr_miss_latency::.cpu0.data  30598216488                       # number of ReadReq MSHR miss cycles
system.cpu0.dcache.ReadReq_mshr_miss_latency::total  30598216488                       # number of ReadReq MSHR miss cycles
system.cpu0.dcache.ReadReq_mshr_miss_rate::.cpu0.data     0.031284                       # mshr miss rate for ReadReq accesses
system.cpu0.dcache.ReadReq_mshr_miss_rate::total     0.031284                       # mshr miss rate for ReadReq accesses
system.cpu0.dcache.ReadReq_avg_mshr_miss_latency::.cpu0.data 88011.898084                       # average ReadReq mshr miss latency
system.cpu0.dcache.ReadReq_avg_mshr_miss_latency::total 88011.898084                       # average ReadReq mshr miss latency
system.cpu0.dcache.WriteReq_hits::.cpu0.data      5557139                       # number of WriteReq hits
system.cpu0.dcache.WriteReq_hits::total       5557139                       # number of WriteReq hits
system.cpu0.dcache.WriteReq_misses::.cpu0.data          256                       # number of WriteReq misses
system.cpu0.dcache.WriteReq_misses::total          256                       # number of WriteReq misses
system.cpu0.dcache.WriteReq_miss_latency::.cpu0.data     11065590                       # number of WriteReq miss cycles
system.cpu0.dcache.WriteReq_miss_latency::total     11065590                       # number of WriteReq miss cycles
system.cpu0.dcache.WriteReq_accesses::.cpu0.data      5557395                       # number of WriteReq accesses(hits+misses)
system.cpu0.dcache.WriteReq_accesses::total      5557395                       # number of WriteReq accesses(hits+misses)
system.cpu0.dcache.WriteReq_miss_rate::.cpu0.data     0.000046                       # miss rate for WriteReq accesses
system.cpu0.dcache.WriteReq_miss_rate::total     0.000046                       # miss rate for WriteReq accesses
system.cpu0.dcache.WriteReq_avg_miss_latency::.cpu0.data 43224.960938                       # average WriteReq miss latency
system.cpu0.dcache.WriteReq_avg_miss_latency::total 43224.960938                       # average WriteReq miss latency
system.cpu0.dcache.WriteReq_mshr_misses::.cpu0.data          256                       # number of WriteReq MSHR misses
system.cpu0.dcache.WriteReq_mshr_misses::total          256                       # number of WriteReq MSHR misses
system.cpu0.dcache.WriteReq_mshr_miss_latency::.cpu0.data     10895094                       # number of WriteReq MSHR miss cycles
system.cpu0.dcache.WriteReq_mshr_miss_latency::total     10895094                       # number of WriteReq MSHR miss cycles
system.cpu0.dcache.WriteReq_mshr_miss_rate::.cpu0.data     0.000046                       # mshr miss rate for WriteReq accesses
system.cpu0.dcache.WriteReq_mshr_miss_rate::total     0.000046                       # mshr miss rate for WriteReq accesses
system.cpu0.dcache.WriteReq_avg_mshr_miss_latency::.cpu0.data 42558.960938                       # average WriteReq mshr miss latency
system.cpu0.dcache.WriteReq_avg_mshr_miss_latency::total 42558.960938                       # average WriteReq mshr miss latency
system.cpu0.dcache.tags.pwrStateResidencyTicks::UNDEFINED 1816222739553                       # Cumulative time (in ticks) in various power states
system.cpu0.dcache.tags.tagsinuse            7.999997                       # Cycle average of tags in use
system.cpu0.dcache.tags.total_refs           16670458                       # Total number of references to valid blocks.
system.cpu0.dcache.tags.sampled_refs           347916                       # Sample count of references to valid blocks.
system.cpu0.dcache.tags.avg_refs            47.915181                       # Average number of references to valid blocks.
system.cpu0.dcache.tags.warmup_cycle           166167                       # Cycle when the warmup percentage was hit.
system.cpu0.dcache.tags.occ_blocks::.cpu0.data     7.999997                       # Average occupied blocks per requestor
system.cpu0.dcache.tags.occ_percent::.cpu0.data     1.000000                       # Average percentage of cache occupancy
system.cpu0.dcache.tags.occ_percent::total     1.000000                       # Average percentage of cache occupancy
system.cpu0.dcache.tags.occ_task_id_blocks::1024            8                       # Occupied blocks per task id
system.cpu0.dcache.tags.age_task_id_blocks_1024::4            8                       # Occupied blocks per task id
system.cpu0.dcache.tags.occ_task_id_percent::1024            1                       # Percentage of cache occupancy per task id
system.cpu0.dcache.tags.tag_accesses        133711580                       # Number of tag accesses
system.cpu0.dcache.tags.data_accesses       133711580                       # Number of data accesses
system.cpu0.dcache.tags.repl_invalid                0                       # Number of initial replacements
system.cpu0.dcache.tags.repl_valid_tag              0                       # Number of local replacements
system.cpu0.dcache.tags.repl_valid_data             0                       # Number of global replacements
system.cpu1.numPwrStateTransitions                  1                       # Number of power state transitions
system.cpu1.pwrStateResidencyTicks::ON   1816222739553                       # Cumulative time (in ticks) in various power states
system.cpu1.icache.pwrStateResidencyTicks::UNDEFINED 1816222739553                       # Cumulative time (in ticks) in various power states
system.cpu1.icache.demand_hits::.cpu1.inst   1346433652                       # number of demand (read+write) hits
system.cpu1.icache.demand_hits::total      1346433652                       # number of demand (read+write) hits
system.cpu1.icache.overall_hits::.cpu1.inst   1346433652                       # number of overall hits
system.cpu1.icache.overall_hits::total     1346433652                       # number of overall hits
system.cpu1.icache.demand_misses::.cpu1.inst         4044                       # number of demand (read+write) misses
system.cpu1.icache.demand_misses::total          4044                       # number of demand (read+write) misses
system.cpu1.icache.overall_misses::.cpu1.inst         4044                       # number of overall misses
system.cpu1.icache.overall_misses::total         4044                       # number of overall misses
system.cpu1.icache.demand_miss_latency::.cpu1.inst    226336104                       # number of demand (read+write) miss cycles
system.cpu1.icache.demand_miss_latency::total    226336104                       # number of demand (read+write) miss cycles
system.cpu1.icache.overall_miss_latency::.cpu1.inst    226336104                       # number of overall miss cycles
system.cpu1.icache.overall_miss_latency::total    226336104                       # number of overall miss cycles
system.cpu1.icache.demand_accesses::.cpu1.inst   1346437696                       # number of demand (read+write) accesses
system.cpu1.icache.demand_accesses::total   1346437696                       # number of demand (read+write) accesses
system.cpu1.icache.overall_accesses::.cpu1.inst   1346437696                       # number of overall (read+write) accesses
system.cpu1.icache.overall_accesses::total   1346437696                       # number of overall (read+write) accesses
system.cpu1.icache.demand_miss_rate::.cpu1.inst     0.000003                       # miss rate for demand accesses
system.cpu1.icache.demand_miss_rate::total     0.000003                       # miss rate for demand accesses
system.cpu1.icache.overall_miss_rate::.cpu1.inst     0.000003                       # miss rate for overall accesses
system.cpu1.icache.overall_miss_rate::total     0.000003                       # miss rate for overall accesses
system.cpu1.icache.demand_avg_miss_latency::.cpu1.inst 55968.373887                       # average overall miss latency
system.cpu1.icache.demand_avg_miss_latency::total 55968.373887                       # average overall miss latency
system.cpu1.icache.overall_avg_miss_latency::.cpu1.inst 55968.373887                       # average overall miss latency
system.cpu1.icache.overall_avg_miss_latency::total 55968.373887                       # average overall miss latency
system.cpu1.icache.blocked_cycles::no_mshrs            0                       # number of cycles access was blocked
system.cpu1.icache.blocked_cycles::no_targets            0                       # number of cycles access was blocked
system.cpu1.icache.blocked::no_mshrs                0                       # number of cycles access was blocked
system.cpu1.icache.blocked::no_targets              0                       # number of cycles access was blocked
system.cpu1.icache.avg_blocked_cycles::no_mshrs          nan                       # average number of cycles each access was blocked
system.cpu1.icache.avg_blocked_cycles::no_targets          nan                       # average number of cycles each access was blocked
system.cpu1.icache.writebacks::.writebacks         3532                       # number of writebacks
system.cpu1.icache.writebacks::total             3532                       # number of writebacks
system.cpu1.icache.demand_mshr_misses::.cpu1.inst         4044                       # number of demand (read+write) MSHR misses
system.cpu1.icache.demand_mshr_misses::total         4044                       # number of demand (read+write) MSHR misses
system.cpu1.icache.overall_mshr_misses::.cpu1.inst         4044                       # number of overall MSHR misses
system.cpu1.icache.overall_mshr_misses::total         4044                       # number of overall MSHR misses
system.cpu1.icache.demand_mshr_miss_latency::.cpu1.inst    223642800                       # number of demand (read+write) MSHR miss cycles
system.cpu1.icache.demand_mshr_miss_latency::total    223642800                       # number of demand (read+write) MSHR miss cycles
system.cpu1.icache.overall_mshr_miss_latency::.cpu1.inst    223642800                       # number of overall MSHR miss cycles
system.cpu1.icache.overall_mshr_miss_latency::total    223642800                       # number of overall MSHR miss cycles
system.cpu1.icache.demand_mshr_miss_rate::.cpu1.inst     0.000003                       # mshr miss rate for demand accesses
system.cpu1.icache.demand_mshr_miss_rate::total     0.000003                       # mshr miss rate for demand accesses
system.cpu1.icache.overall_mshr_miss_rate::.cpu1.inst     0.000003                       # mshr miss rate for overall accesses
system.cpu1.icache.overall_mshr_miss_rate::total     0.000003                       # mshr miss rate for overall accesses
system.cpu1.icache.demand_avg_mshr_miss_latency::.cpu1.inst 55302.373887                       # average overall mshr miss latency
system.cpu1.icache.demand_avg_mshr_miss_latency::total 55302.373887                       # average overall mshr miss latency
system.cpu1.icache.overall_avg_mshr_miss_latency::.cpu1.inst 55302.373887                       # average overall mshr miss latency
system.cpu1.icache.overall_avg_mshr_miss_latency::total 55302.373887                       # average overall mshr miss latency
system.cpu1.icache.replacements                  3532                       # number of replacements
system.cpu1.icache.ReadReq_hits::.cpu1.inst   1346433652                       # number of ReadReq hits
system.cpu1.icache.ReadReq_hits::total     1346433652                       # number of ReadReq hits
system.cpu1.icache.ReadReq_misses::.cpu1.inst         4044                       # number of ReadReq misses
system.cpu1.icache.ReadReq_misses::total         4044                       # number of ReadReq misses
system.cpu1.icache.ReadReq_miss_latency::.cpu1.inst    226336104                       # number of ReadReq miss cycles
system.cpu1.icache.ReadReq_miss_latency::total    226336104                       # number of ReadReq miss cycles
system.cpu1.icache.ReadReq_accesses::.cpu1.inst   1346437696                       # number of ReadReq accesses(hits+misses)
system.cpu1.icache.ReadReq_accesses::total   1346437696                       # number of ReadReq accesses(hits+misses)
system.cpu1.icache.ReadReq_miss_rate::.cpu1.inst     0.000003                       # miss rate for ReadReq accesses
system.cpu1.icache.ReadReq_miss_rate::total     0.000003                       # miss rate for ReadReq accesses
system.cpu1.icache.ReadReq_avg_miss_latency::.cpu1.inst 55968.373887                       # average ReadReq miss latency
system.cpu1.icache.ReadReq_avg_miss_latency::total 55968.373887                       # average ReadReq miss latency
system.cpu1.icache.ReadReq_mshr_misses::.cpu1.inst         4044                       # number of ReadReq MSHR misses
system.cpu1.icache.ReadReq_mshr_misses::total         4044                       # number of ReadReq MSHR misses
system.cpu1.icache.ReadReq_mshr_miss_latency::.cpu1.inst    223642800                       # number of ReadReq MSHR miss cycles
system.cpu1.icache.ReadReq_mshr_miss_latency::total    223642800                       # number of ReadReq MSHR miss cycles
system.cpu1.icache.ReadReq_mshr_miss_rate::.cpu1.inst     0.000003                       # mshr miss rate for ReadReq accesses
system.cpu1.icache.ReadReq_mshr_miss_rate::total     0.000003                       # mshr miss rate for ReadReq accesses
system.cpu1.icache.ReadReq_avg_mshr_miss_latency::.cpu1.inst 55302.373887                       # average ReadReq mshr miss latency
system.cpu1.icache.ReadReq_avg_mshr_miss_latency::total 55302.373887                       # average ReadReq mshr miss latency
system.cpu1.icache.tags.pwrStateResidencyTicks::UNDEFINED 1816222739553                       # Cumulative time (in ticks) in various power states
system.cpu1.icache.tags.tagsinuse          510.090157                       # Cycle average of tags in use
system.cpu1.icache.tags.total_refs         1346437696                       # Total number of references to valid blocks.
system.cpu1.icache.tags.sampled_refs             4044                       # Sample count of references to valid blocks.
system.cpu1.icache.tags.avg_refs         332947.006924                       # Average number of references to valid blocks.
system.cpu1.icache.tags.warmup_cycle            88245                       # Cycle when the warmup percentage was hit.
system.cpu1.icache.tags.occ_blocks::.cpu1.inst   510.090157                       # Average occupied blocks per requestor
system.cpu1.icache.tags.occ_percent::.cpu1.inst     0.996270                       # Average percentage of cache occupancy
system.cpu1.icache.tags.occ_percent::total     0.996270                       # Average percentage of cache occupancy
system.cpu1.icache.tags.occ_task_id_blocks::1024          512                       # Occupied blocks per task id
system.cpu1.icache.tags.age_task_id_blocks_1024::0            2                       # Occupied blocks per task id
system.cpu1.icache.tags.age_task_id_blocks_1024::2            8                       # Occupied blocks per task id
system.cpu1.icache.tags.age_task_id_blocks_1024::3            1                       # Occupied blocks per task id
system.cpu1.icache.tags.age_task_id_blocks_1024::4          501                       # Occupied blocks per task id
system.cpu1.icache.tags.occ_task_id_percent::1024            1                       # Percentage of cache occupancy per task id
system.cpu1.icache.tags.tag_accesses      10771505612                       # Number of tag accesses
system.cpu1.icache.tags.data_accesses     10771505612                       # Number of data accesses
system.cpu1.icache.tags.repl_invalid                0                       # Number of initial replacements
system.cpu1.icache.tags.repl_valid_tag              0                       # Number of local replacements
system.cpu1.icache.tags.repl_valid_data             0                       # Number of global replacements
system.cpu1.dtb.walker.pwrStateResidencyTicks::UNDEFINED 1816222739553                       # Cumulative time (in ticks) in various power states
system.cpu1.interrupts.clk_domain.clock          5328                       # Clock period in ticks
system.cpu1.itb_walker_cache.pwrStateResidencyTicks::UNDEFINED 1816222739553                       # Cumulative time (in ticks) in various power states
system.cpu1.itb_walker_cache.blocked_cycles::no_mshrs            0                       # number of cycles access was blocked
system.cpu1.itb_walker_cache.blocked_cycles::no_targets            0                       # number of cycles access was blocked
system.cpu1.itb_walker_cache.blocked::no_mshrs            0                       # number of cycles access was blocked
system.cpu1.itb_walker_cache.blocked::no_targets            0                       # number of cycles access was blocked
system.cpu1.itb_walker_cache.avg_blocked_cycles::no_mshrs          nan                       # average number of cycles each access was blocked
system.cpu1.itb_walker_cache.avg_blocked_cycles::no_targets          nan                       # average number of cycles each access was blocked
system.cpu1.itb_walker_cache.replacements            0                       # number of replacements
system.cpu1.itb_walker_cache.tags.pwrStateResidencyTicks::UNDEFINED 1816222739553                       # Cumulative time (in ticks) in various power states
system.cpu1.itb_walker_cache.tags.tagsinuse            0                       # Cycle average of tags in use
system.cpu1.itb_walker_cache.tags.total_refs            0                       # Total number of references to valid blocks.
system.cpu1.itb_walker_cache.tags.sampled_refs            0                       # Sample count of references to valid blocks.
system.cpu1.itb_walker_cache.tags.avg_refs          nan                       # Average number of references to valid blocks.
system.cpu1.itb_walker_cache.tags.warmup_cycle            0                       # Cycle when the warmup percentage was hit.
system.cpu1.itb_walker_cache.tags.tag_accesses            0                       # Number of tag accesses
system.cpu1.itb_walker_cache.tags.data_accesses            0                       # Number of data accesses
system.cpu1.itb_walker_cache.tags.repl_invalid            0                       # Number of initial replacements
system.cpu1.itb_walker_cache.tags.repl_valid_tag            0                       # Number of local replacements
system.cpu1.itb_walker_cache.tags.repl_valid_data            0                       # Number of global replacements
system.cpu1.itb.walker.pwrStateResidencyTicks::UNDEFINED 1816222739553                       # Cumulative time (in ticks) in various power states
system.cpu1.dtb_walker_cache.pwrStateResidencyTicks::UNDEFINED 1816222739553                       # Cumulative time (in ticks) in various power states
system.cpu1.dtb_walker_cache.blocked_cycles::no_mshrs            0                       # number of cycles access was blocked
system.cpu1.dtb_walker_cache.blocked_cycles::no_targets            0                       # number of cycles access was blocked
system.cpu1.dtb_walker_cache.blocked::no_mshrs            0                       # number of cycles access was blocked
system.cpu1.dtb_walker_cache.blocked::no_targets            0                       # number of cycles access was blocked
system.cpu1.dtb_walker_cache.avg_blocked_cycles::no_mshrs          nan                       # average number of cycles each access was blocked
system.cpu1.dtb_walker_cache.avg_blocked_cycles::no_targets          nan                       # average number of cycles each access was blocked
system.cpu1.dtb_walker_cache.replacements            0                       # number of replacements
system.cpu1.dtb_walker_cache.tags.pwrStateResidencyTicks::UNDEFINED 1816222739553                       # Cumulative time (in ticks) in various power states
system.cpu1.dtb_walker_cache.tags.tagsinuse            0                       # Cycle average of tags in use
system.cpu1.dtb_walker_cache.tags.total_refs            0                       # Total number of references to valid blocks.
system.cpu1.dtb_walker_cache.tags.sampled_refs            0                       # Sample count of references to valid blocks.
system.cpu1.dtb_walker_cache.tags.avg_refs          nan                       # Average number of references to valid blocks.
system.cpu1.dtb_walker_cache.tags.warmup_cycle            0                       # Cycle when the warmup percentage was hit.
system.cpu1.dtb_walker_cache.tags.tag_accesses            0                       # Number of tag accesses
system.cpu1.dtb_walker_cache.tags.data_accesses            0                       # Number of data accesses
system.cpu1.dtb_walker_cache.tags.repl_invalid            0                       # Number of initial replacements
system.cpu1.dtb_walker_cache.tags.repl_valid_tag            0                       # Number of local replacements
system.cpu1.dtb_walker_cache.tags.repl_valid_data            0                       # Number of global replacements
system.cpu1.dcache.pwrStateResidencyTicks::UNDEFINED 1816222739553                       # Cumulative time (in ticks) in various power states
system.cpu1.dcache.demand_hits::.cpu1.data    373537354                       # number of demand (read+write) hits
system.cpu1.dcache.demand_hits::total       373537354                       # number of demand (read+write) hits
system.cpu1.dcache.overall_hits::.cpu1.data    373537354                       # number of overall hits
system.cpu1.dcache.overall_hits::total      373537354                       # number of overall hits
system.cpu1.dcache.demand_misses::.cpu1.data     59114775                       # number of demand (read+write) misses
system.cpu1.dcache.demand_misses::total      59114775                       # number of demand (read+write) misses
system.cpu1.dcache.overall_misses::.cpu1.data     59114775                       # number of overall misses
system.cpu1.dcache.overall_misses::total     59114775                       # number of overall misses
system.cpu1.dcache.demand_miss_latency::.cpu1.data 670507972182                       # number of demand (read+write) miss cycles
system.cpu1.dcache.demand_miss_latency::total 670507972182                       # number of demand (read+write) miss cycles
system.cpu1.dcache.overall_miss_latency::.cpu1.data 670507972182                       # number of overall miss cycles
system.cpu1.dcache.overall_miss_latency::total 670507972182                       # number of overall miss cycles
system.cpu1.dcache.demand_accesses::.cpu1.data    432652129                       # number of demand (read+write) accesses
system.cpu1.dcache.demand_accesses::total    432652129                       # number of demand (read+write) accesses
system.cpu1.dcache.overall_accesses::.cpu1.data    432652129                       # number of overall (read+write) accesses
system.cpu1.dcache.overall_accesses::total    432652129                       # number of overall (read+write) accesses
system.cpu1.dcache.demand_miss_rate::.cpu1.data     0.136634                       # miss rate for demand accesses
system.cpu1.dcache.demand_miss_rate::total     0.136634                       # miss rate for demand accesses
system.cpu1.dcache.overall_miss_rate::.cpu1.data     0.136634                       # miss rate for overall accesses
system.cpu1.dcache.overall_miss_rate::total     0.136634                       # miss rate for overall accesses
system.cpu1.dcache.demand_avg_miss_latency::.cpu1.data 11342.476939                       # average overall miss latency
system.cpu1.dcache.demand_avg_miss_latency::total 11342.476939                       # average overall miss latency
system.cpu1.dcache.overall_avg_miss_latency::.cpu1.data 11342.476939                       # average overall miss latency
system.cpu1.dcache.overall_avg_miss_latency::total 11342.476939                       # average overall miss latency
system.cpu1.dcache.blocked_cycles::no_mshrs            0                       # number of cycles access was blocked
system.cpu1.dcache.blocked_cycles::no_targets            0                       # number of cycles access was blocked
system.cpu1.dcache.blocked::no_mshrs                0                       # number of cycles access was blocked
system.cpu1.dcache.blocked::no_targets              0                       # number of cycles access was blocked
system.cpu1.dcache.avg_blocked_cycles::no_mshrs          nan                       # average number of cycles each access was blocked
system.cpu1.dcache.avg_blocked_cycles::no_targets          nan                       # average number of cycles each access was blocked
system.cpu1.dcache.writebacks::.writebacks     56226403                       # number of writebacks
system.cpu1.dcache.writebacks::total         56226403                       # number of writebacks
system.cpu1.dcache.demand_mshr_misses::.cpu1.data     59114775                       # number of demand (read+write) MSHR misses
system.cpu1.dcache.demand_mshr_misses::total     59114775                       # number of demand (read+write) MSHR misses
system.cpu1.dcache.overall_mshr_misses::.cpu1.data     59114775                       # number of overall MSHR misses
system.cpu1.dcache.overall_mshr_misses::total     59114775                       # number of overall MSHR misses
system.cpu1.dcache.demand_mshr_miss_latency::.cpu1.data 631137532032                       # number of demand (read+write) MSHR miss cycles
system.cpu1.dcache.demand_mshr_miss_latency::total 631137532032                       # number of demand (read+write) MSHR miss cycles
system.cpu1.dcache.overall_mshr_miss_latency::.cpu1.data 631137532032                       # number of overall MSHR miss cycles
system.cpu1.dcache.overall_mshr_miss_latency::total 631137532032                       # number of overall MSHR miss cycles
system.cpu1.dcache.demand_mshr_miss_rate::.cpu1.data     0.136634                       # mshr miss rate for demand accesses
system.cpu1.dcache.demand_mshr_miss_rate::total     0.136634                       # mshr miss rate for demand accesses
system.cpu1.dcache.overall_mshr_miss_rate::.cpu1.data     0.136634                       # mshr miss rate for overall accesses
system.cpu1.dcache.overall_mshr_miss_rate::total     0.136634                       # mshr miss rate for overall accesses
system.cpu1.dcache.demand_avg_mshr_miss_latency::.cpu1.data 10676.476939                       # average overall mshr miss latency
system.cpu1.dcache.demand_avg_mshr_miss_latency::total 10676.476939                       # average overall mshr miss latency
system.cpu1.dcache.overall_avg_mshr_miss_latency::.cpu1.data 10676.476939                       # average overall mshr miss latency
system.cpu1.dcache.overall_avg_mshr_miss_latency::total 10676.476939                       # average overall mshr miss latency
system.cpu1.dcache.replacements              59114767                       # number of replacements
system.cpu1.dcache.ReadReq_hits::.cpu1.data    251180914                       # number of ReadReq hits
system.cpu1.dcache.ReadReq_hits::total      251180914                       # number of ReadReq hits
system.cpu1.dcache.ReadReq_misses::.cpu1.data     46992349                       # number of ReadReq misses
system.cpu1.dcache.ReadReq_misses::total     46992349                       # number of ReadReq misses
system.cpu1.dcache.ReadReq_miss_latency::.cpu1.data 517371547563                       # number of ReadReq miss cycles
system.cpu1.dcache.ReadReq_miss_latency::total 517371547563                       # number of ReadReq miss cycles
system.cpu1.dcache.ReadReq_accesses::.cpu1.data    298173263                       # number of ReadReq accesses(hits+misses)
system.cpu1.dcache.ReadReq_accesses::total    298173263                       # number of ReadReq accesses(hits+misses)
system.cpu1.dcache.ReadReq_miss_rate::.cpu1.data     0.157601                       # miss rate for ReadReq accesses
system.cpu1.dcache.ReadReq_miss_rate::total     0.157601                       # miss rate for ReadReq accesses
system.cpu1.dcache.ReadReq_avg_miss_latency::.cpu1.data 11009.697506                       # average ReadReq miss latency
system.cpu1.dcache.ReadReq_avg_miss_latency::total 11009.697506                       # average ReadReq miss latency
system.cpu1.dcache.ReadReq_mshr_misses::.cpu1.data     46992349                       # number of ReadReq MSHR misses
system.cpu1.dcache.ReadReq_mshr_misses::total     46992349                       # number of ReadReq MSHR misses
system.cpu1.dcache.ReadReq_mshr_miss_latency::.cpu1.data 486074643129                       # number of ReadReq MSHR miss cycles
system.cpu1.dcache.ReadReq_mshr_miss_latency::total 486074643129                       # number of ReadReq MSHR miss cycles
system.cpu1.dcache.ReadReq_mshr_miss_rate::.cpu1.data     0.157601                       # mshr miss rate for ReadReq accesses
system.cpu1.dcache.ReadReq_mshr_miss_rate::total     0.157601                       # mshr miss rate for ReadReq accesses
system.cpu1.dcache.ReadReq_avg_mshr_miss_latency::.cpu1.data 10343.697506                       # average ReadReq mshr miss latency
system.cpu1.dcache.ReadReq_avg_mshr_miss_latency::total 10343.697506                       # average ReadReq mshr miss latency
system.cpu1.dcache.WriteReq_hits::.cpu1.data    122356440                       # number of WriteReq hits
[...]
system.mem_ctrls.wrQLenPdf::114                     0                       # What write queue length does an incoming req see
system.mem_ctrls.wrQLenPdf::115                     0                       # What write queue length does an incoming req see
system.mem_ctrls.wrQLenPdf::116                     0                       # What write queue length does an incoming req see
system.mem_ctrls.wrQLenPdf::117                     0                       # What write queue length does an incoming req see
system.mem_ctrls.wrQLenPdf::118                     0                       # What write queue length does an incoming req see
system.mem_ctrls.wrQLenPdf::119                     0                       # What write queue length does an incoming req see
system.mem_ctrls.wrQLenPdf::120                     0                       # What write queue length does an incoming req see
system.mem_ctrls.wrQLenPdf::121                     0                       # What write queue length does an incoming req see
system.mem_ctrls.wrQLenPdf::122                     0                       # What write queue length does an incoming req see
system.mem_ctrls.wrQLenPdf::123                     0                       # What write queue length does an incoming req see
system.mem_ctrls.wrQLenPdf::124                     0                       # What write queue length does an incoming req see
system.mem_ctrls.wrQLenPdf::125                     0                       # What write queue length does an incoming req see
system.mem_ctrls.wrQLenPdf::126                     0                       # What write queue length does an incoming req see
system.mem_ctrls.wrQLenPdf::127                     0                       # What write queue length does an incoming req see
system.mem_ctrls.bytesPerActivate::samples       499115                       # Bytes accessed per row activation
system.mem_ctrls.bytesPerActivate::mean            64                       # Bytes accessed per row activation
system.mem_ctrls.bytesPerActivate::gmean    64.000000                       # Bytes accessed per row activation
system.mem_ctrls.bytesPerActivate::64-71       499115    100.00%    100.00% # Bytes accessed per row activation
system.mem_ctrls.bytesPerActivate::total       499115                       # Bytes accessed per row activation
system.mem_ctrls.rdPerTurnAround::samples         1699                       # Reads before turning the bus around for writes
system.mem_ctrls.rdPerTurnAround::mean     273.540906                       # Reads before turning the bus around for writes
system.mem_ctrls.rdPerTurnAround::gmean    133.482192                       # Reads before turning the bus around for writes
system.mem_ctrls.rdPerTurnAround::stdev   3297.396911                       # Reads before turning the bus around for writes
system.mem_ctrls.rdPerTurnAround::0-4095         1692     99.59%     99.59% # Reads before turning the bus around for writes
system.mem_ctrls.rdPerTurnAround::4096-8191            3      0.18%     99.76% # Reads before turning the bus around for writes
system.mem_ctrls.rdPerTurnAround::8192-12287            2      0.12%     99.88% # Reads before turning the bus around for writes
system.mem_ctrls.rdPerTurnAround::12288-16383            1      0.06%     99.94% # Reads before turning the bus around for writes
system.mem_ctrls.rdPerTurnAround::131072-135167            1      0.06%    100.00% # Reads before turning the bus around for writes
system.mem_ctrls.rdPerTurnAround::total          1699                       # Reads before turning the bus around for writes
system.mem_ctrls.wrPerTurnAround::samples         1699                       # Writes before turning the bus around for reads
system.mem_ctrls.wrPerTurnAround::mean      17.989994                       # Writes before turning the bus around for reads
system.mem_ctrls.wrPerTurnAround::gmean     17.989415                       # Writes before turning the bus around for reads
system.mem_ctrls.wrPerTurnAround::stdev      0.139048                       # Writes before turning the bus around for reads
system.mem_ctrls.wrPerTurnAround::16                8      0.47%      0.47% # Writes before turning the bus around for reads
system.mem_ctrls.wrPerTurnAround::17                1      0.06%      0.53% # Writes before turning the bus around for reads
system.mem_ctrls.wrPerTurnAround::18             1690     99.47%    100.00% # Writes before turning the bus around for reads
system.mem_ctrls.wrPerTurnAround::total          1699                       # Writes before turning the bus around for reads
system.mem_ctrls.bytesReadDRAM               29987200                       # Total number of bytes read from DRAM
system.mem_ctrls.bytesReadWrQ                    8192                       # Total number of bytes read from write queue
system.mem_ctrls.bytesWritten                 1956160                       # Total number of bytes written to DRAM
system.mem_ctrls.bytesReadSys                29995392                       # Total read bytes from the system interface side
system.mem_ctrls.bytesWrittenSys              1959680                       # Total written bytes from the system interface side
system.mem_ctrls.avgRdBW                        16.51                       # Average DRAM read bandwidth in MiByte/s
system.mem_ctrls.avgWrBW                         1.08                       # Average achieved write bandwidth in MiByte/s
system.mem_ctrls.avgRdBWSys                     16.52                       # Average system read bandwidth in MiByte/s
system.mem_ctrls.avgWrBWSys                      1.08                       # Average system write bandwidth in MiByte/s
system.mem_ctrls.peakBW                      19207.00                       # Theoretical peak bandwidth in MiByte/s
system.mem_ctrls.busUtil                         0.09                       # Data bus utilization in percentage
system.mem_ctrls.busUtilRead                     0.09                       # Data bus utilization in percentage for reads
system.mem_ctrls.busUtilWrite                    0.01                       # Data bus utilization in percentage for writes
system.mem_ctrls.totGap                  1797020590923                       # Total gap between requests
system.mem_ctrls.avgGap                    3599094.31                       # Average gap between requests
system.mem_ctrls.masterReadBytes::.cpu0.inst        28736                       # Per-master bytes read from memory
system.mem_ctrls.masterReadBytes::.cpu0.data     22236992                       # Per-master bytes read from memory
system.mem_ctrls.masterReadBytes::.cpu1.inst       156224                       # Per-master bytes read from memory
system.mem_ctrls.masterReadBytes::.cpu1.data      7565248                       # Per-master bytes read from memory
system.mem_ctrls.masterWriteBytes::.writebacks      1956160                       # Per-master bytes write to memory
system.mem_ctrls.masterReadRate::.cpu0.inst 15821.847934286059                       # Per-master bytes read from memory rate (Bytes/sec)
system.mem_ctrls.masterReadRate::.cpu0.data 12243537.929424263537                       # Per-master bytes read from memory rate (Bytes/sec)
system.mem_ctrls.masterReadRate::.cpu1.inst 86015.881531385909                       # Per-master bytes read from memory rate (Bytes/sec)
system.mem_ctrls.masterReadRate::.cpu1.data 4165374.562958022580                       # Per-master bytes read from memory rate (Bytes/sec)
system.mem_ctrls.masterWriteRate::.writebacks 1077048.512497669086                       # Per-master bytes write to memory rate (Bytes/sec)
system.mem_ctrls.masterReadAccesses::.cpu0.inst          449                       # Per-master read serviced memory accesses
system.mem_ctrls.masterReadAccesses::.cpu0.data       347453                       # Per-master read serviced memory accesses
system.mem_ctrls.masterReadAccesses::.cpu1.inst         2441                       # Per-master read serviced memory accesses
system.mem_ctrls.masterReadAccesses::.cpu1.data       118335                       # Per-master read serviced memory accesses
system.mem_ctrls.masterWriteAccesses::.writebacks        30620                       # Per-master write serviced memory accesses
system.mem_ctrls.masterReadTotalLat::.cpu0.inst     16641491                       # Per-master read total memory access latency
system.mem_ctrls.masterReadTotalLat::.cpu0.data  13989332496                       # Per-master read total memory access latency
system.mem_ctrls.masterReadTotalLat::.cpu1.inst     89801664                       # Per-master read total memory access latency
system.mem_ctrls.masterReadTotalLat::.cpu1.data   4351822634                       # Per-master read total memory access latency
system.mem_ctrls.masterWriteTotalLat::.writebacks 96600990118319                       # Per-master write total memory access latency
system.mem_ctrls.masterReadAvgLat::.cpu0.inst     37063.45                       # Per-master read average memory access latency
system.mem_ctrls.masterReadAvgLat::.cpu0.data     40262.52                       # Per-master read average memory access latency
system.mem_ctrls.masterReadAvgLat::.cpu1.inst     36788.88                       # Per-master read average memory access latency
system.mem_ctrls.masterReadAvgLat::.cpu1.data     36775.45                       # Per-master read average memory access latency
system.mem_ctrls.masterWriteAvgLat::.writebacks 3154833119.47                       # Per-master write average memory access latency
system.mem_ctrls.pageHitRate                     0.00                       # Row buffer hit rate, read and write combined
system.mem_ctrls.rank1.actEnergy         388792980.575824                       # Energy for activate commands per rank (pJ)
system.mem_ctrls.rank1.preEnergy         686369146.478463                       # Energy for precharge commands per rank (pJ)
system.mem_ctrls.rank1.readEnergy        642176538.595294                       # Energy for read commands per rank (pJ)
system.mem_ctrls.rank1.writeEnergy       35864728.367999                       # Energy for write commands per rank (pJ)
system.mem_ctrls.rank1.refreshEnergy     157658175766.572845                       # Energy for refresh commands per rank (pJ)
system.mem_ctrls.rank1.actBackEnergy     40707680825.854240                       # Energy for active background per rank (pJ)
system.mem_ctrls.rank1.preBackEnergy     564712337969.497314                       # Energy for precharge background per rank (pJ)
system.mem_ctrls.rank1.actPowerDownEnergy            0                       # Energy for active power-down per rank (pJ)
system.mem_ctrls.rank1.prePowerDownEnergy            0                       # Energy for precharge power-down per rank (pJ)
system.mem_ctrls.rank1.selfRefreshEnergy            0                       # Energy for self refresh per rank (pJ)
system.mem_ctrls.rank1.totalEnergy       764831397960.187744                       # Total energy per rank (pJ)
system.mem_ctrls.rank1.averagePower        421.111013                       # Core power per rank (mW)
system.mem_ctrls.rank1.totalIdleTime                0                       # Total Idle time Per DRAM Rank
system.mem_ctrls.rank1.memoryStateTime::IDLE 1723693023684                       # Time in different power states
system.mem_ctrls.rank1.memoryStateTime::REF  81645200000                       # Time in different power states
system.mem_ctrls.rank1.memoryStateTime::SREF            0                       # Time in different power states
system.mem_ctrls.rank1.memoryStateTime::PRE_PDN            0                       # Time in different power states
system.mem_ctrls.rank1.memoryStateTime::ACT  10884515869                       # Time in different power states
system.mem_ctrls.rank1.memoryStateTime::ACT_PDN            0                       # Time in different power states
system.mem_ctrls.rank0.actEnergy         389514971.663823                       # Energy for activate commands per rank (pJ)
system.mem_ctrls.rank0.preEnergy         687643738.437669                       # Energy for precharge commands per rank (pJ)
system.mem_ctrls.rank0.readEnergy        643010380.924898                       # Energy for read commands per rank (pJ)
system.mem_ctrls.rank0.writeEnergy       36239818.271999                       # Energy for write commands per rank (pJ)
system.mem_ctrls.rank0.refreshEnergy     157658175766.572845                       # Energy for refresh commands per rank (pJ)
system.mem_ctrls.rank0.actBackEnergy     40710015129.759094                       # Energy for active background per rank (pJ)
system.mem_ctrls.rank0.preBackEnergy     564710726470.355347                       # Energy for precharge background per rank (pJ)
system.mem_ctrls.rank0.actPowerDownEnergy            0                       # Energy for active power-down per rank (pJ)
system.mem_ctrls.rank0.prePowerDownEnergy            0                       # Energy for precharge power-down per rank (pJ)
system.mem_ctrls.rank0.selfRefreshEnergy            0                       # Energy for self refresh per rank (pJ)
system.mem_ctrls.rank0.totalEnergy       764835326280.229004                       # Total energy per rank (pJ)
system.mem_ctrls.rank0.averagePower        421.113176                       # Core power per rank (mW)
system.mem_ctrls.rank0.totalIdleTime                0                       # Total Idle time Per DRAM Rank
system.mem_ctrls.rank0.memoryStateTime::IDLE 1723687385706                       # Time in different power states
system.mem_ctrls.rank0.memoryStateTime::REF  81645200000                       # Time in different power states
system.mem_ctrls.rank0.memoryStateTime::SREF            0                       # Time in different power states
system.mem_ctrls.rank0.memoryStateTime::PRE_PDN            0                       # Time in different power states
system.mem_ctrls.rank0.memoryStateTime::ACT  10890153847                       # Time in different power states
system.mem_ctrls.rank0.memoryStateTime::ACT_PDN            0                       # Time in different power states
system.cpu_clk_domain.clock                       333                       # Clock period in ticks
system.tol2bus.pwrStateResidencyTicks::UNDEFINED 1816222739553                       # Cumulative time (in ticks) in various power states
system.tol2bus.trans_dist::ReadResp          47344502                       # Transaction distribution
system.tol2bus.trans_dist::WritebackDirty     56257558                       # Transaction distribution
system.tol2bus.trans_dist::WritebackClean         3550                       # Transaction distribution
system.tol2bus.trans_dist::CleanEvict         3412530                       # Transaction distribution
system.tol2bus.trans_dist::ReadExReq         12122682                       # Transaction distribution
system.tol2bus.trans_dist::ReadExResp        12122682                       # Transaction distribution
system.tol2bus.trans_dist::ReadCleanReq          4493                       # Transaction distribution
system.tol2bus.trans_dist::ReadSharedReq     47340009                       # Transaction distribution
system.tol2bus.pkt_count_system.cpu0.icache.mem_side::system.l2.cpu_side          916                       # Packet count per connected master and slave (bytes)
system.tol2bus.pkt_count_system.cpu0.dcache.mem_side::system.l2.cpu_side      1043740                       # Packet count per connected master and slave (bytes)
system.tol2bus.pkt_count_system.cpu1.icache.mem_side::system.l2.cpu_side        11620                       # Packet count per connected master and slave (bytes)
system.tol2bus.pkt_count_system.cpu1.dcache.mem_side::system.l2.cpu_side    177344317                       # Packet count per connected master and slave (bytes)
system.tol2bus.pkt_count::total             178400593                       # Packet count per connected master and slave (bytes)
system.tol2bus.pkt_size_system.cpu0.icache.mem_side::system.l2.cpu_side        29888                       # Cumulative packet size per connected master and slave (bytes)
system.tol2bus.pkt_size_system.cpu0.dcache.mem_side::system.l2.cpu_side     22300864                       # Cumulative packet size per connected master and slave (bytes)
system.tol2bus.pkt_size_system.cpu1.icache.mem_side::system.l2.cpu_side       484864                       # Cumulative packet size per connected master and slave (bytes)
system.tol2bus.pkt_size_system.cpu1.dcache.mem_side::system.l2.cpu_side   7381835392                       # Cumulative packet size per connected master and slave (bytes)
system.tol2bus.pkt_size::total             7404651008                       # Cumulative packet size per connected master and slave (bytes)
system.tol2bus.snoops                          207413                       # Total snoops (count)
system.tol2bus.snoopTraffic                   1959680                       # Total snoop traffic (bytes)
system.tol2bus.snoop_fanout::samples         59674597                       # Request fanout histogram
system.tol2bus.snoop_fanout::mean            0.000016                       # Request fanout histogram
system.tol2bus.snoop_fanout::stdev           0.003965                       # Request fanout histogram
system.tol2bus.snoop_fanout::underflows             0      0.00%      0.00% # Request fanout histogram
system.tol2bus.snoop_fanout::0               59673659    100.00%    100.00% # Request fanout histogram
system.tol2bus.snoop_fanout::1                    938      0.00%    100.00% # Request fanout histogram
system.tol2bus.snoop_fanout::2                      0      0.00%    100.00% # Request fanout histogram
system.tol2bus.snoop_fanout::3                      0      0.00%    100.00% # Request fanout histogram
system.tol2bus.snoop_fanout::4                      0      0.00%    100.00% # Request fanout histogram
system.tol2bus.snoop_fanout::5                      0      0.00%    100.00% # Request fanout histogram
system.tol2bus.snoop_fanout::6                      0      0.00%    100.00% # Request fanout histogram
system.tol2bus.snoop_fanout::7                      0      0.00%    100.00% # Request fanout histogram
system.tol2bus.snoop_fanout::8                      0      0.00%    100.00% # Request fanout histogram
system.tol2bus.snoop_fanout::overflows              0      0.00%    100.00% # Request fanout histogram
system.tol2bus.snoop_fanout::min_value              0                       # Request fanout histogram
system.tol2bus.snoop_fanout::max_value              1                       # Request fanout histogram
system.tol2bus.snoop_fanout::total           59674597                       # Request fanout histogram
system.tol2bus.reqLayer0.occupancy        77054330205                       # Layer occupancy (ticks)
system.tol2bus.reqLayer0.utilization              4.2                       # Layer utilization (%)
system.tol2bus.respLayer5.occupancy       59055660225                       # Layer occupancy (ticks)
system.tol2bus.respLayer5.utilization             3.3                       # Layer utilization (%)
system.tol2bus.respLayer4.occupancy           4039956                       # Layer occupancy (ticks)
system.tol2bus.respLayer4.utilization             0.0                       # Layer utilization (%)
system.tol2bus.respLayer1.occupancy         348752992                       # Layer occupancy (ticks)
system.tol2bus.respLayer1.utilization             0.0                       # Layer utilization (%)
system.tol2bus.respLayer0.occupancy            449547                       # Layer occupancy (ticks)
system.tol2bus.respLayer0.utilization             0.0                       # Layer utilization (%)

---------- End Simulation Statistics   ----------
