
---------- Begin Simulation Statistics ----------
final_tick                                67658549058                       # Number of ticks from beginning of simulation (restored from checkpoints and never reset)
host_inst_rate                                 709565                       # Simulator instruction rate (inst/s)
host_mem_usage                               10711288                       # Number of bytes of host memory used
host_op_rate                                  1348175                       # Simulator op (including micro ops) rate (op/s)
host_seconds                                    39.20                       # Real time elapsed on the host
host_tick_rate                             1726043666                       # Simulator tick rate (ticks/s)
sim_freq                                 1000000000000                       # Frequency of simulated ticks
sim_insts                                    27813914                       # Number of instructions simulated
sim_ops                                      52846607                       # Number of ops (including micro ops) simulated
sim_seconds                                  0.067659                       # Number of seconds simulated
sim_ticks                                 67658549058                       # Number of ticks simulated
system.cpu0.Branches                          2780018                       # Number of branches fetched
system.cpu0.committedInsts                   27788099                       # Number of instructions committed
system.cpu0.committedOps                     52797721                       # Number of ops (including micro ops) committed
system.cpu0.dtb.rdAccesses                   11113063                       # TLB accesses on read requests
system.cpu0.dtb.rdMisses                         5446                       # TLB misses on read requests
system.cpu0.dtb.wrAccesses                    5557395                       # TLB accesses on write requests
system.cpu0.dtb.wrMisses                            8                       # TLB misses on write requests
system.cpu0.idle_fraction                    0.000000                       # Percentage of idle cycles
system.cpu0.itb.rdAccesses                          0                       # TLB accesses on read requests
system.cpu0.itb.rdMisses                            0                       # TLB misses on read requests
system.cpu0.itb.wrAccesses                   38902351                       # TLB accesses on write requests
system.cpu0.itb.wrMisses                           46                       # TLB misses on write requests
system.cpu0.not_idle_fraction                1.000000                       # Percentage of non-idle cycles
system.cpu0.numCycles                       203178826                       # number of cpu cycles simulated
system.cpu0.numWorkItemsCompleted                   0                       # number of work items this cpu completed
system.cpu0.numWorkItemsStarted                     0                       # number of work items this cpu started
system.cpu0.num_busy_cycles              203178825.996997                       # Number of busy cycles
system.cpu0.num_cc_register_reads            13899961                       # number of times the CC registers were read
system.cpu0.num_cc_register_writes           16672913                       # number of times the CC registers were written
system.cpu0.num_conditional_control_insts      2779471                       # number of instructions that are conditional controls
system.cpu0.num_fp_alu_accesses                  1214                       # Number of float alu accesses
system.cpu0.num_fp_insts                         1214                       # number of float instructions
system.cpu0.num_fp_register_reads                1401                       # number of times the floating registers were read
system.cpu0.num_fp_register_writes                679                       # number of times the floating registers were written
system.cpu0.num_func_calls                        384                       # number of times a function call or return occured
system.cpu0.num_idle_cycles                  0.003003                       # Number of idle cycles
system.cpu0.num_int_alu_accesses             52796880                       # Number of integer alu accesses
system.cpu0.num_int_insts                    52796880                       # number of integer instructions
system.cpu0.num_int_register_reads          105592520                       # number of times the integer registers were read
system.cpu0.num_int_register_writes          44459432                       # number of times the integer registers were written
system.cpu0.num_load_insts                   11113060                       # Number of load instructions
system.cpu0.num_mem_refs                     16670454                       # number of memory refs
system.cpu0.num_store_insts                   5557394                       # Number of store instructions
system.cpu0.num_vec_alu_accesses                    0                       # Number of vector alu accesses
system.cpu0.num_vec_insts                           0                       # number of vector instructions
system.cpu0.num_vec_register_reads                  0                       # number of times the vector registers were read
system.cpu0.num_vec_register_writes                 0                       # number of times the vector registers were written
system.cpu0.op_class::No_OpClass                  336      0.00%      0.00% # Class of executed instruction
system.cpu0.op_class::IntAlu                 36126368     68.42%     68.42% # Class of executed instruction
system.cpu0.op_class::IntMult                       5      0.00%     68.42% # Class of executed instruction
system.cpu0.op_class::IntDiv                       28      0.00%     68.42% # Class of executed instruction
system.cpu0.op_class::FloatAdd                    144      0.00%     68.43% # Class of executed instruction
system.cpu0.op_class::FloatCmp                      0      0.00%     68.43% # Class of executed instruction
system.cpu0.op_class::FloatCvt                      0      0.00%     68.43% # Class of executed instruction
system.cpu0.op_class::FloatMult                     0      0.00%     68.43% # Class of executed instruction
system.cpu0.op_class::FloatMultAcc                  0      0.00%     68.43% # Class of executed instruction
system.cpu0.op_class::FloatDiv                      0      0.00%     68.43% # Class of executed instruction
system.cpu0.op_class::FloatMisc                     0      0.00%     68.43% # Class of executed instruction
system.cpu0.op_class::FloatSqrt                     0      0.00%     68.43% # Class of executed instruction
system.cpu0.op_class::SimdAdd                       0      0.00%     68.43% # Class of executed instruction
system.cpu0.op_class::SimdAddAcc                    0      0.00%     68.43% # Class of executed instruction
system.cpu0.op_class::SimdAlu                     104      0.00%     68.43% # Class of executed instruction
system.cpu0.op_class::SimdCmp                       0      0.00%     68.43% # Class of executed instruction
system.cpu0.op_class::SimdCvt                      54      0.00%     68.43% # Class of executed instruction
system.cpu0.op_class::SimdMisc                    228      0.00%     68.43% # Class of executed instruction
system.cpu0.op_class::SimdMult                      0      0.00%     68.43% # Class of executed instruction
system.cpu0.op_class::SimdMultAcc                   0      0.00%     68.43% # Class of executed instruction
system.cpu0.op_class::SimdShift                     0      0.00%     68.43% # Class of executed instruction
system.cpu0.op_class::SimdShiftAcc                  0      0.00%     68.43% # Class of executed instruction
system.cpu0.op_class::SimdDiv                       0      0.00%     68.43% # Class of executed instruction
system.cpu0.op_class::SimdSqrt                      0      0.00%     68.43% # Class of executed instruction
system.cpu0.op_class::SimdFloatAdd                  0      0.00%     68.43% # Class of executed instruction
system.cpu0.op_class::SimdFloatAlu                  0      0.00%     68.43% # Class of executed instruction
system.cpu0.op_class::SimdFloatCmp                  0      0.00%     68.43% # Class of executed instruction
system.cpu0.op_class::SimdFloatCvt                  0      0.00%     68.43% # Class of executed instruction
system.cpu0.op_class::SimdFloatDiv                  0      0.00%     68.43% # Class of executed instruction
system.cpu0.op_class::SimdFloatMisc                 0      0.00%     68.43% # Class of executed instruction
system.cpu0.op_class::SimdFloatMult                 0      0.00%     68.43% # Class of executed instruction
system.cpu0.op_class::SimdFloatMultAcc              0      0.00%     68.43% # Class of executed instruction
system.cpu0.op_class::SimdFloatSqrt                 0      0.00%     68.43% # Class of executed instruction
system.cpu0.op_class::SimdReduceAdd                 0      0.00%     68.43% # Class of executed instruction
system.cpu0.op_class::SimdReduceAlu                 0      0.00%     68.43% # Class of executed instruction
system.cpu0.op_class::SimdReduceCmp                 0      0.00%     68.43% # Class of executed instruction
system.cpu0.op_class::SimdFloatReduceAdd            0      0.00%     68.43% # Class of executed instruction
system.cpu0.op_class::SimdFloatReduceCmp            0      0.00%     68.43% # Class of executed instruction
system.cpu0.op_class::SimdAes                       0      0.00%     68.43% # Class of executed instruction
system.cpu0.op_class::SimdAesMix                    0      0.00%     68.43% # Class of executed instruction
system.cpu0.op_class::SimdSha1Hash                  0      0.00%     68.43% # Class of executed instruction
system.cpu0.op_class::SimdSha1Hash2                 0      0.00%     68.43% # Class of executed instruction
system.cpu0.op_class::SimdSha256Hash                0      0.00%     68.43% # Class of executed instruction
system.cpu0.op_class::SimdSha256Hash2               0      0.00%     68.43% # Class of executed instruction
system.cpu0.op_class::SimdShaSigma2                 0      0.00%     68.43% # Class of executed instruction
system.cpu0.op_class::SimdShaSigma3                 0      0.00%     68.43% # Class of executed instruction
system.cpu0.op_class::SimdPredAlu                   0      0.00%     68.43% # Class of executed instruction
system.cpu0.op_class::MemRead                11113000     21.05%     89.47% # Class of executed instruction
system.cpu0.op_class::MemWrite                5556913     10.52%    100.00% # Class of executed instruction
system.cpu0.op_class::FloatMemRead                 60      0.00%    100.00% # Class of executed instruction
system.cpu0.op_class::FloatMemWrite               481      0.00%    100.00% # Class of executed instruction
system.cpu0.op_class::IprAccess                     0      0.00%    100.00% # Class of executed instruction
system.cpu0.op_class::InstPrefetch                  0      0.00%    100.00% # Class of executed instruction
system.cpu0.op_class::total                  52797721                       # Class of executed instruction
system.cpu0.workload.numSyscalls                   12                       # Number of system calls
system.cpu1.Branches                             5305                       # Number of branches fetched
system.cpu1.committedInsts                      25815                       # Number of instructions committed
system.cpu1.committedOps                        48886                       # Number of ops (including micro ops) committed
system.cpu1.dtb.rdAccesses                       3726                       # TLB accesses on read requests
system.cpu1.dtb.rdMisses                           16                       # TLB misses on read requests
system.cpu1.dtb.wrAccesses                       3337                       # TLB accesses on write requests
system.cpu1.dtb.wrMisses                           12                       # TLB misses on write requests
system.cpu1.idle_fraction                    0.998206                       # Percentage of idle cycles
system.cpu1.itb.rdAccesses                          0                       # TLB accesses on read requests
system.cpu1.itb.rdMisses                            0                       # TLB misses on read requests
system.cpu1.itb.wrAccesses                      33762                       # TLB accesses on write requests
system.cpu1.itb.wrMisses                           57                       # TLB misses on write requests
system.cpu1.not_idle_fraction                0.001794                       # Percentage of non-idle cycles
system.cpu1.numCycles                          364496                       # number of cpu cycles simulated
system.cpu1.numWorkItemsCompleted                   0                       # number of work items this cpu completed
system.cpu1.numWorkItemsStarted                     0                       # number of work items this cpu started
system.cpu1.num_busy_cycles                653.893600                       # Number of busy cycles
system.cpu1.num_cc_register_reads               28041                       # number of times the CC registers were read
system.cpu1.num_cc_register_writes              19042                       # number of times the CC registers were written
system.cpu1.num_conditional_control_insts         4562                       # number of instructions that are conditional controls
system.cpu1.num_fp_alu_accesses                  2070                       # Number of float alu accesses
system.cpu1.num_fp_insts                         2070                       # number of float instructions
system.cpu1.num_fp_register_reads                2549                       # number of times the floating registers were read
system.cpu1.num_fp_register_writes               1298                       # number of times the floating registers were written
system.cpu1.num_func_calls                        475                       # number of times a function call or return occured
system.cpu1.num_idle_cycles              363842.106400                       # Number of idle cycles
system.cpu1.num_int_alu_accesses                47578                       # Number of integer alu accesses
system.cpu1.num_int_insts                       47578                       # number of integer instructions
system.cpu1.num_int_register_reads              90915                       # number of times the integer registers were read
system.cpu1.num_int_register_writes             39340                       # number of times the integer registers were written
system.cpu1.num_load_insts                       3713                       # Number of load instructions
system.cpu1.num_mem_refs                         7045                       # number of memory refs
system.cpu1.num_store_insts                      3332                       # Number of store instructions
system.cpu1.num_vec_alu_accesses                    0                       # Number of vector alu accesses
system.cpu1.num_vec_insts                           0                       # number of vector instructions
system.cpu1.num_vec_register_reads                  0                       # number of times the vector registers were read
system.cpu1.num_vec_register_writes                 0                       # number of times the vector registers were written
system.cpu1.op_class::No_OpClass                  430      0.88%      0.88% # Class of executed instruction
system.cpu1.op_class::IntAlu                    39751     81.31%     82.19% # Class of executed instruction
system.cpu1.op_class::IntMult                     651      1.33%     83.52% # Class of executed instruction
system.cpu1.op_class::IntDiv                       42      0.09%     83.61% # Class of executed instruction
system.cpu1.op_class::FloatAdd                    158      0.32%     83.93% # Class of executed instruction
system.cpu1.op_class::FloatCmp                      0      0.00%     83.93% # Class of executed instruction
system.cpu1.op_class::FloatCvt                      0      0.00%     83.93% # Class of executed instruction
system.cpu1.op_class::FloatMult                     0      0.00%     83.93% # Class of executed instruction
system.cpu1.op_class::FloatMultAcc                  0      0.00%     83.93% # Class of executed instruction
system.cpu1.op_class::FloatDiv                      0      0.00%     83.93% # Class of executed instruction
system.cpu1.op_class::FloatMisc                     0      0.00%     83.93% # Class of executed instruction
system.cpu1.op_class::FloatSqrt                     0      0.00%     83.93% # Class of executed instruction
system.cpu1.op_class::SimdAdd                       0      0.00%     83.93% # Class of executed instruction
system.cpu1.op_class::SimdAddAcc                    0      0.00%     83.93% # Class of executed instruction
system.cpu1.op_class::SimdAlu                     176      0.36%     84.29% # Class of executed instruction
system.cpu1.op_class::SimdCmp                      54      0.11%     84.40% # Class of executed instruction
system.cpu1.op_class::SimdCvt                     188      0.38%     84.79% # Class of executed instruction
system.cpu1.op_class::SimdMisc                    391      0.80%     85.59% # Class of executed instruction
system.cpu1.op_class::SimdMult                      0      0.00%     85.59% # Class of executed instruction
system.cpu1.op_class::SimdMultAcc                   0      0.00%     85.59% # Class of executed instruction
system.cpu1.op_class::SimdShift                     0      0.00%     85.59% # Class of executed instruction
system.cpu1.op_class::SimdShiftAcc                  0      0.00%     85.59% # Class of executed instruction
system.cpu1.op_class::SimdDiv                       0      0.00%     85.59% # Class of executed instruction
system.cpu1.op_class::SimdSqrt                      0      0.00%     85.59% # Class of executed instruction
system.cpu1.op_class::SimdFloatAdd                  0      0.00%     85.59% # Class of executed instruction
system.cpu1.op_class::SimdFloatAlu                  0      0.00%     85.59% # Class of executed instruction
system.cpu1.op_class::SimdFloatCmp                  0      0.00%     85.59% # Class of executed instruction
system.cpu1.op_class::SimdFloatCvt                  0      0.00%     85.59% # Class of executed instruction
system.cpu1.op_class::SimdFloatDiv                  0      0.00%     85.59% # Class of executed instruction
system.cpu1.op_class::SimdFloatMisc                 0      0.00%     85.59% # Class of executed instruction
system.cpu1.op_class::SimdFloatMult                 0      0.00%     85.59% # Class of executed instruction
system.cpu1.op_class::SimdFloatMultAcc              0      0.00%     85.59% # Class of executed instruction
system.cpu1.op_class::SimdFloatSqrt                 0      0.00%     85.59% # Class of executed instruction
system.cpu1.op_class::SimdReduceAdd                 0      0.00%     85.59% # Class of executed instruction
system.cpu1.op_class::SimdReduceAlu                 0      0.00%     85.59% # Class of executed instruction
system.cpu1.op_class::SimdReduceCmp                 0      0.00%     85.59% # Class of executed instruction
system.cpu1.op_class::SimdFloatReduceAdd            0      0.00%     85.59% # Class of executed instruction
system.cpu1.op_class::SimdFloatReduceCmp            0      0.00%     85.59% # Class of executed instruction
system.cpu1.op_class::SimdAes                       0      0.00%     85.59% # Class of executed instruction
system.cpu1.op_class::SimdAesMix                    0      0.00%     85.59% # Class of executed instruction
system.cpu1.op_class::SimdSha1Hash                  0      0.00%     85.59% # Class of executed instruction
system.cpu1.op_class::SimdSha1Hash2                 0      0.00%     85.59% # Class of executed instruction
system.cpu1.op_class::SimdSha256Hash                0      0.00%     85.59% # Class of executed instruction
system.cpu1.op_class::SimdSha256Hash2               0      0.00%     85.59% # Class of executed instruction
system.cpu1.op_class::SimdShaSigma2                 0      0.00%     85.59% # Class of executed instruction
system.cpu1.op_class::SimdShaSigma3                 0      0.00%     85.59% # Class of executed instruction
system.cpu1.op_class::SimdPredAlu                   0      0.00%     85.59% # Class of executed instruction
system.cpu1.op_class::MemRead                    3416      6.99%     92.58% # Class of executed instruction
system.cpu1.op_class::MemWrite                   2722      5.57%     98.14% # Class of executed instruction
system.cpu1.op_class::FloatMemRead                297      0.61%     98.75% # Class of executed instruction
system.cpu1.op_class::FloatMemWrite               610      1.25%    100.00% # Class of executed instruction
system.cpu1.op_class::IprAccess                     0      0.00%    100.00% # Class of executed instruction
system.cpu1.op_class::InstPrefetch                  0      0.00%    100.00% # Class of executed instruction
system.cpu1.op_class::total                     48886                       # Class of executed instruction
system.cpu1.workload.numSyscalls                   15                       # Number of system calls
system.membus.snoop_filter.hit_multi_requests            0                       # Number of requests hitting in the snoop filter with multiple (>1) holders of the requested data.
system.membus.snoop_filter.hit_multi_snoops            0                       # Number of snoops hitting in the snoop filter with multiple (>1) holders of the requested data.
system.membus.snoop_filter.hit_single_requests        87433                       # Number of requests hitting in the snoop filter with a single holder of the requested data.
system.membus.snoop_filter.hit_single_snoops            0                       # Number of snoops hitting in the snoop filter with a single holder of the requested data.
system.membus.snoop_filter.tot_requests        436347                       # Total number of requests made to the snoop filter.
system.membus.snoop_filter.tot_snoops               0                       # Total number of snoops made to the snoop filter.
system.tol2bus.snoop_filter.hit_multi_requests            0                       # Number of requests hitting in the snoop filter with multiple (>1) holders of the requested data.
system.tol2bus.snoop_filter.hit_multi_snoops            0                       # Number of snoops hitting in the snoop filter with multiple (>1) holders of the requested data.
system.tol2bus.snoop_filter.hit_single_requests       349212                       # Number of requests hitting in the snoop filter with a single holder of the requested data.
system.tol2bus.snoop_filter.hit_single_snoops          699                       # Number of snoops hitting in the snoop filter with a single holder of the requested data.
system.tol2bus.snoop_filter.tot_requests       699368                       # Total number of requests made to the snoop filter.
system.tol2bus.snoop_filter.tot_snoops            699                       # Total number of snoops made to the snoop filter.
system.membus.pwrStateResidencyTicks::UNDEFINED  67658549058                       # Cumulative time (in ticks) in various power states
system.membus.trans_dist::ReadResp             348557                       # Transaction distribution
system.membus.trans_dist::WritebackDirty          175                       # Transaction distribution
system.membus.trans_dist::CleanEvict            87258                       # Transaction distribution
system.membus.trans_dist::ReadExReq               357                       # Transaction distribution
system.membus.trans_dist::ReadExResp              357                       # Transaction distribution
system.membus.trans_dist::ReadSharedReq        348557                       # Transaction distribution
system.membus.pkt_count_system.l2.mem_side::system.mem_ctrls.port       785261                       # Packet count per connected master and slave (bytes)
system.membus.pkt_count_system.l2.mem_side::total       785261                       # Packet count per connected master and slave (bytes)
system.membus.pkt_count::total                 785261                       # Packet count per connected master and slave (bytes)
system.membus.pkt_size_system.l2.mem_side::system.mem_ctrls.port     22341696                       # Cumulative packet size per connected master and slave (bytes)
system.membus.pkt_size_system.l2.mem_side::total     22341696                       # Cumulative packet size per connected master and slave (bytes)
system.membus.pkt_size::total                22341696                       # Cumulative packet size per connected master and slave (bytes)
system.membus.snoops                                0                       # Total snoops (count)
system.membus.snoopTraffic                          0                       # Total snoop traffic (bytes)
system.membus.snoop_fanout::samples            348914                       # Request fanout histogram
system.membus.snoop_fanout::mean                    0                       # Request fanout histogram
system.membus.snoop_fanout::stdev                   0                       # Request fanout histogram
system.membus.snoop_fanout::underflows              0      0.00%      0.00% # Request fanout histogram
system.membus.snoop_fanout::0                  348914    100.00%    100.00% # Request fanout histogram
system.membus.snoop_fanout::1                       0      0.00%    100.00% # Request fanout histogram
system.membus.snoop_fanout::overflows               0      0.00%    100.00% # Request fanout histogram
system.membus.snoop_fanout::min_value               0                       # Request fanout histogram
system.membus.snoop_fanout::max_value               0                       # Request fanout histogram
system.membus.snoop_fanout::total              348914                       # Request fanout histogram
system.membus.reqLayer4.occupancy           610027690                       # Layer occupancy (ticks)
system.membus.reqLayer4.utilization               0.9                       # Layer utilization (%)
system.membus.respLayer1.occupancy         1867294640                       # Layer occupancy (ticks)
system.membus.respLayer1.utilization              2.8                       # Layer utilization (%)
system.voltage_domain.voltage                       1                       # Voltage in Volts
system.clk_domain.clock                          1000                       # Clock period in ticks
system.cpu0.numPwrStateTransitions                  1                       # Number of power state transitions
system.cpu0.pwrStateResidencyTicks::ON    67658549058                       # Cumulative time (in ticks) in various power states
system.cpu0.icache.pwrStateResidencyTicks::UNDEFINED  67658549058                       # Cumulative time (in ticks) in various power states
system.cpu0.icache.demand_hits::.cpu0.inst     38901902                       # number of demand (read+write) hits
system.cpu0.icache.demand_hits::total        38901902                       # number of demand (read+write) hits
system.cpu0.icache.overall_hits::.cpu0.inst     38901902                       # number of overall hits
system.cpu0.icache.overall_hits::total       38901902                       # number of overall hits
system.cpu0.icache.demand_misses::.cpu0.inst          449                       # number of demand (read+write) misses
system.cpu0.icache.demand_misses::total           449                       # number of demand (read+write) misses
system.cpu0.icache.overall_misses::.cpu0.inst          449                       # number of overall misses
system.cpu0.icache.overall_misses::total          449                       # number of overall misses
system.cpu0.icache.demand_miss_latency::.cpu0.inst     38015280                       # number of demand (read+write) miss cycles
system.cpu0.icache.demand_miss_latency::total     38015280                       # number of demand (read+write) miss cycles
system.cpu0.icache.overall_miss_latency::.cpu0.inst     38015280                       # number of overall miss cycles
system.cpu0.icache.overall_miss_latency::total     38015280                       # number of overall miss cycles
system.cpu0.icache.demand_accesses::.cpu0.inst     38902351                       # number of demand (read+write) accesses
system.cpu0.icache.demand_accesses::total     38902351                       # number of demand (read+write) accesses
system.cpu0.icache.overall_accesses::.cpu0.inst     38902351                       # number of overall (read+write) accesses
system.cpu0.icache.overall_accesses::total     38902351                       # number of overall (read+write) accesses
system.cpu0.icache.demand_miss_rate::.cpu0.inst     0.000012                       # miss rate for demand accesses
system.cpu0.icache.demand_miss_rate::total     0.000012                       # miss rate for demand accesses
system.cpu0.icache.overall_miss_rate::.cpu0.inst     0.000012                       # miss rate for overall accesses
system.cpu0.icache.overall_miss_rate::total     0.000012                       # miss rate for overall accesses
system.cpu0.icache.demand_avg_miss_latency::.cpu0.inst 84666.547884                       # average overall miss latency
system.cpu0.icache.demand_avg_miss_latency::total 84666.547884                       # average overall miss latency
system.cpu0.icache.overall_avg_miss_latency::.cpu0.inst 84666.547884                       # average overall miss latency
system.cpu0.icache.overall_avg_miss_latency::total 84666.547884                       # average overall miss latency
system.cpu0.icache.blocked_cycles::no_mshrs            0                       # number of cycles access was blocked
system.cpu0.icache.blocked_cycles::no_targets            0                       # number of cycles access was blocked
system.cpu0.icache.blocked::no_mshrs                0                       # number of cycles access was blocked
system.cpu0.icache.blocked::no_targets              0                       # number of cycles access was blocked
system.cpu0.icache.avg_blocked_cycles::no_mshrs          nan                       # average number of cycles each access was blocked
system.cpu0.icache.avg_blocked_cycles::no_targets          nan                       # average number of cycles each access was blocked
system.cpu0.icache.writebacks::.writebacks           18                       # number of writebacks
system.cpu0.icache.writebacks::total               18                       # number of writebacks
system.cpu0.icache.demand_mshr_misses::.cpu0.inst          449                       # number of demand (read+write) MSHR misses
system.cpu0.icache.demand_mshr_misses::total          449                       # number of demand (read+write) MSHR misses
system.cpu0.icache.overall_mshr_misses::.cpu0.inst          449                       # number of overall MSHR misses
system.cpu0.icache.overall_mshr_misses::total          449                       # number of overall MSHR misses
system.cpu0.icache.demand_mshr_miss_latency::.cpu0.inst     37716246                       # number of demand (read+write) MSHR miss cycles
system.cpu0.icache.demand_mshr_miss_latency::total     37716246                       # number of demand (read+write) MSHR miss cycles
system.cpu0.icache.overall_mshr_miss_latency::.cpu0.inst     37716246                       # number of overall MSHR miss cycles
system.cpu0.icache.overall_mshr_miss_latency::total     37716246                       # number of overall MSHR miss cycles
system.cpu0.icache.demand_mshr_miss_rate::.cpu0.inst     0.000012                       # mshr miss rate for demand accesses
system.cpu0.icache.demand_mshr_miss_rate::total     0.000012                       # mshr miss rate for demand accesses
system.cpu0.icache.overall_mshr_miss_rate::.cpu0.inst     0.000012                       # mshr miss rate for overall accesses
system.cpu0.icache.overall_mshr_miss_rate::total     0.000012                       # mshr miss rate for overall accesses
system.cpu0.icache.demand_avg_mshr_miss_latency::.cpu0.inst 84000.547884                       # average overall mshr miss latency
system.cpu0.icache.demand_avg_mshr_miss_latency::total 84000.547884                       # average overall mshr miss latency
system.cpu0.icache.overall_avg_mshr_miss_latency::.cpu0.inst 84000.547884                       # average overall mshr miss latency
system.cpu0.icache.overall_avg_mshr_miss_latency::total 84000.547884                       # average overall mshr miss latency
system.cpu0.icache.replacements                    18                       # number of replacements
system.cpu0.icache.ReadReq_hits::.cpu0.inst     38901902                       # number of ReadReq hits
system.cpu0.icache.ReadReq_hits::total       38901902                       # number of ReadReq hits
system.cpu0.icache.ReadReq_misses::.cpu0.inst          449                       # number of ReadReq misses
system.cpu0.icache.ReadReq_misses::total          449                       # number of ReadReq misses
system.cpu0.icache.ReadReq_miss_latency::.cpu0.inst     38015280                       # number of ReadReq miss cycles
system.cpu0.icache.ReadReq_miss_latency::total     38015280                       # number of ReadReq miss cycles
system.cpu0.icache.ReadReq_accesses::.cpu0.inst     38902351                       # number of ReadReq accesses(hits+misses)
system.cpu0.icache.ReadReq_accesses::total     38902351                       # number of ReadReq accesses(hits+misses)
system.cpu0.icache.ReadReq_miss_rate::.cpu0.inst     0.000012                       # miss rate for ReadReq accesses
system.cpu0.icache.ReadReq_miss_rate::total     0.000012                       # miss rate for ReadReq accesses
system.cpu0.icache.ReadReq_avg_miss_latency::.cpu0.inst 84666.547884                       # average ReadReq miss latency
system.cpu0.icache.ReadReq_avg_miss_latency::total 84666.547884                       # average ReadReq miss latency
system.cpu0.icache.ReadReq_mshr_misses::.cpu0.inst          449                       # number of ReadReq MSHR misses
system.cpu0.icache.ReadReq_mshr_misses::total          449                       # number of ReadReq MSHR misses
system.cpu0.icache.ReadReq_mshr_miss_latency::.cpu0.inst     37716246                       # number of ReadReq MSHR miss cycles
system.cpu0.icache.ReadReq_mshr_miss_latency::total     37716246                       # number of ReadReq MSHR miss cycles
system.cpu0.icache.ReadReq_mshr_miss_rate::.cpu0.inst     0.000012                       # mshr miss rate for ReadReq accesses
system.cpu0.icache.ReadReq_mshr_miss_rate::total     0.000012                       # mshr miss rate for ReadReq accesses
system.cpu0.icache.ReadReq_avg_mshr_miss_latency::.cpu0.inst 84000.547884                       # average ReadReq mshr miss latency
system.cpu0.icache.ReadReq_avg_mshr_miss_latency::total 84000.547884                       # average ReadReq mshr miss latency
system.cpu0.icache.tags.pwrStateResidencyTicks::UNDEFINED  67658549058                       # Cumulative time (in ticks) in various power states
system.cpu0.icache.tags.tagsinuse          347.854816                       # Cycle average of tags in use
system.cpu0.icache.tags.total_refs           38902351                       # Total number of references to valid blocks.
system.cpu0.icache.tags.sampled_refs              449                       # Sample count of references to valid blocks.
system.cpu0.icache.tags.avg_refs         86642.207127                       # Average number of references to valid blocks.
system.cpu0.icache.tags.warmup_cycle            83250                       # Cycle when the warmup percentage was hit.
system.cpu0.icache.tags.occ_blocks::.cpu0.inst   347.854816                       # Average occupied blocks per requestor
system.cpu0.icache.tags.occ_percent::.cpu0.inst     0.679404                       # Average percentage of cache occupancy
system.cpu0.icache.tags.occ_percent::total     0.679404                       # Average percentage of cache occupancy
system.cpu0.icache.tags.occ_task_id_blocks::1024          431                       # Occupied blocks per task id
system.cpu0.icache.tags.age_task_id_blocks_1024::0           65                       # Occupied blocks per task id
system.cpu0.icache.tags.age_task_id_blocks_1024::1           31                       # Occupied blocks per task id
system.cpu0.icache.tags.age_task_id_blocks_1024::4          335                       # Occupied blocks per task id
system.cpu0.icache.tags.occ_task_id_percent::1024     0.841797                       # Percentage of cache occupancy per task id
system.cpu0.icache.tags.tag_accesses        311219257                       # Number of tag accesses
system.cpu0.icache.tags.data_accesses       311219257                       # Number of data accesses
system.cpu0.icache.tags.repl_invalid                0                       # Number of initial replacements
system.cpu0.icache.tags.repl_valid_tag              0                       # Number of local replacements
system.cpu0.icache.tags.repl_valid_data             0                       # Number of global replacements
system.cpu0.dtb.walker.pwrStateResidencyTicks::UNDEFINED  67658549058                       # Cumulative time (in ticks) in various power states
system.cpu0.interrupts.clk_domain.clock          5328                       # Clock period in ticks
system.cpu0.itb_walker_cache.pwrStateResidencyTicks::UNDEFINED  67658549058                       # Cumulative time (in ticks) in various power states
system.cpu0.itb_walker_cache.blocked_cycles::no_mshrs            0                       # number of cycles access was blocked
system.cpu0.itb_walker_cache.blocked_cycles::no_targets            0                       # number of cycles access was blocked
system.cpu0.itb_walker_cache.blocked::no_mshrs            0                       # number of cycles access was blocked
system.cpu0.itb_walker_cache.blocked::no_targets            0                       # number of cycles access was blocked
system.cpu0.itb_walker_cache.avg_blocked_cycles::no_mshrs          nan                       # average number of cycles each access was blocked
system.cpu0.itb_walker_cache.avg_blocked_cycles::no_targets          nan                       # average number of cycles each access was blocked
system.cpu0.itb_walker_cache.replacements            0                       # number of replacements
system.cpu0.itb_walker_cache.tags.pwrStateResidencyTicks::UNDEFINED  67658549058                       # Cumulative time (in ticks) in various power states
system.cpu0.itb_walker_cache.tags.tagsinuse            0                       # Cycle average of tags in use
system.cpu0.itb_walker_cache.tags.total_refs            0                       # Total number of references to valid blocks.
system.cpu0.itb_walker_cache.tags.sampled_refs            0                       # Sample count of references to valid blocks.
system.cpu0.itb_walker_cache.tags.avg_refs          nan                       # Average number of references to valid blocks.
system.cpu0.itb_walker_cache.tags.warmup_cycle            0                       # Cycle when the warmup percentage was hit.
system.cpu0.itb_walker_cache.tags.tag_accesses            0                       # Number of tag accesses
system.cpu0.itb_walker_cache.tags.data_accesses            0                       # Number of data accesses
system.cpu0.itb_walker_cache.tags.repl_invalid            0                       # Number of initial replacements
system.cpu0.itb_walker_cache.tags.repl_valid_tag            0                       # Number of local replacements
system.cpu0.itb_walker_cache.tags.repl_valid_data            0                       # Number of global replacements
system.cpu0.itb.walker.pwrStateResidencyTicks::UNDEFINED  67658549058                       # Cumulative time (in ticks) in various power states
system.cpu0.dtb_walker_cache.pwrStateResidencyTicks::UNDEFINED  67658549058                       # Cumulative time (in ticks) in various power states
system.cpu0.dtb_walker_cache.blocked_cycles::no_mshrs            0                       # number of cycles access was blocked
system.cpu0.dtb_walker_cache.blocked_cycles::no_targets            0                       # number of cycles access was blocked
system.cpu0.dtb_walker_cache.blocked::no_mshrs            0                       # number of cycles access was blocked
system.cpu0.dtb_walker_cache.blocked::no_targets            0                       # number of cycles access was blocked
system.cpu0.dtb_walker_cache.avg_blocked_cycles::no_mshrs          nan                       # average number of cycles each access was blocked
system.cpu0.dtb_walker_cache.avg_blocked_cycles::no_targets          nan                       # average number of cycles each access was blocked
system.cpu0.dtb_walker_cache.replacements            0                       # number of replacements
system.cpu0.dtb_walker_cache.tags.pwrStateResidencyTicks::UNDEFINED  67658549058                       # Cumulative time (in ticks) in various power states
system.cpu0.dtb_walker_cache.tags.tagsinuse            0                       # Cycle average of tags in use
system.cpu0.dtb_walker_cache.tags.total_refs            0                       # Total number of references to valid blocks.
system.cpu0.dtb_walker_cache.tags.sampled_refs            0                       # Sample count of references to valid blocks.
system.cpu0.dtb_walker_cache.tags.avg_refs          nan                       # Average number of references to valid blocks.
system.cpu0.dtb_walker_cache.tags.warmup_cycle            0                       # Cycle when the warmup percentage was hit.
system.cpu0.dtb_walker_cache.tags.tag_accesses            0                       # Number of tag accesses
system.cpu0.dtb_walker_cache.tags.data_accesses            0                       # Number of data accesses
system.cpu0.dtb_walker_cache.tags.repl_invalid            0                       # Number of initial replacements
system.cpu0.dtb_walker_cache.tags.repl_valid_tag            0                       # Number of local replacements
system.cpu0.dtb_walker_cache.tags.repl_valid_data            0                       # Number of global replacements
system.cpu0.dcache.pwrStateResidencyTicks::UNDEFINED  67658549058                       # Cumulative time (in ticks) in various power states
system.cpu0.dcache.demand_hits::.cpu0.data     16322542                       # number of demand (read+write) hits
system.cpu0.dcache.demand_hits::total        16322542                       # number of demand (read+write) hits
system.cpu0.dcache.overall_hits::.cpu0.data     16322542                       # number of overall hits
system.cpu0.dcache.overall_hits::total       16322542                       # number of overall hits
system.cpu0.dcache.demand_misses::.cpu0.data       347916                       # number of demand (read+write) misses
system.cpu0.dcache.demand_misses::total        347916                       # number of demand (read+write) misses
system.cpu0.dcache.overall_misses::.cpu0.data       347916                       # number of overall misses
system.cpu0.dcache.overall_misses::total       347916                       # number of overall misses
system.cpu0.dcache.demand_miss_latency::.cpu0.data  30841077384                       # number of demand (read+write) miss cycles
system.cpu0.dcache.demand_miss_latency::total  30841077384                       # number of demand (read+write) miss cycles
system.cpu0.dcache.overall_miss_latency::.cpu0.data  30841077384                       # number of overall miss cycles
system.cpu0.dcache.overall_miss_latency::total  30841077384                       # number of overall miss cycles
system.cpu0.dcache.demand_accesses::.cpu0.data     16670458                       # number of demand (read+write) accesses
system.cpu0.dcache.demand_accesses::total     16670458                       # number of demand (read+write) accesses
system.cpu0.dcache.overall_accesses::.cpu0.data     16670458                       # number of overall (read+write) accesses
system.cpu0.dcache.overall_accesses::total     16670458                       # number of overall (read+write) accesses
system.cpu0.dcache.demand_miss_rate::.cpu0.data     0.020870                       # miss rate for demand accesses
system.cpu0.dcache.demand_miss_rate::total     0.020870                       # miss rate for demand accesses
system.cpu0.dcache.overall_miss_rate::.cpu0.data     0.020870                       # miss rate for overall accesses
system.cpu0.dcache.overall_miss_rate::total     0.020870                       # miss rate for overall accesses
system.cpu0.dcache.demand_avg_miss_latency::.cpu0.data 88645.182699                       # average overall miss latency
system.cpu0.dcache.demand_avg_miss_latency::total 88645.182699                       # average overall miss latency
system.cpu0.dcache.overall_avg_miss_latency::.cpu0.data 88645.182699                       # average overall miss latency
system.cpu0.dcache.overall_avg_miss_latency::total 88645.182699                       # average overall miss latency
system.cpu0.dcache.blocked_cycles::no_mshrs            0                       # number of cycles access was blocked
system.cpu0.dcache.blocked_cycles::no_targets            0                       # number of cycles access was blocked
system.cpu0.dcache.blocked::no_mshrs                0                       # number of cycles access was blocked
system.cpu0.dcache.blocked::no_targets              0                       # number of cycles access was blocked
system.cpu0.dcache.avg_blocked_cycles::no_mshrs          nan                       # average number of cycles each access was blocked
system.cpu0.dcache.avg_blocked_cycles::no_targets          nan                       # average number of cycles each access was blocked
system.cpu0.dcache.writebacks::.writebacks          527                       # number of writebacks
system.cpu0.dcache.writebacks::total              527                       # number of writebacks
system.cpu0.dcache.demand_mshr_misses::.cpu0.data       347916                       # number of demand (read+write) MSHR misses
system.cpu0.dcache.demand_mshr_misses::total       347916                       # number of demand (read+write) MSHR misses
system.cpu0.dcache.overall_mshr_misses::.cpu0.data       347916                       # number of overall MSHR misses
system.cpu0.dcache.overall_mshr_misses::total       347916                       # number of overall MSHR misses
system.cpu0.dcache.demand_mshr_miss_latency::.cpu0.data  30609365328                       # number of demand (read+write) MSHR miss cycles
system.cpu0.dcache.demand_mshr_miss_latency::total  30609365328                       # number of demand (read+write) MSHR miss cycles
system.cpu0.dcache.overall_mshr_miss_latency::.cpu0.data  30609365328                       # number of overall MSHR miss cycles
system.cpu0.dcache.overall_mshr_miss_latency::total  30609365328                       # number of overall MSHR miss cycles
system.cpu0.dcache.demand_mshr_miss_rate::.cpu0.data     0.020870                       # mshr miss rate for demand accesses
system.cpu0.dcache.demand_mshr_miss_rate::total     0.020870                       # mshr miss rate for demand accesses
system.cpu0.dcache.overall_mshr_miss_rate::.cpu0.data     0.020870                       # mshr miss rate for overall accesses
system.cpu0.dcache.overall_mshr_miss_rate::total     0.020870                       # mshr miss rate for overall accesses
system.cpu0.dcache.demand_avg_mshr_miss_latency::.cpu0.data 87979.182699                       # average overall mshr miss latency
system.cpu0.dcache.demand_avg_mshr_miss_latency::total 87979.182699                       # average overall mshr miss latency
system.cpu0.dcache.overall_avg_mshr_miss_latency::.cpu0.data 87979.182699                       # average overall mshr miss latency
system.cpu0.dcache.overall_avg_mshr_miss_latency::total 87979.182699                       # average overall mshr miss latency
system.cpu0.dcache.replacements                347908                       # number of replacements
system.cpu0.dcache.ReadReq_hits::.cpu0.data     10765403                       # number of ReadReq hits
system.cpu0.dcache.ReadReq_hits::total       10765403                       # number of ReadReq hits
system.cpu0.dcache.ReadReq_misses::.cpu0.data       347660                       # number of ReadReq misses
system.cpu0.dcache.ReadReq_misses::total       347660                       # number of ReadReq misses
system.cpu0.dcache.ReadReq_miss_latency::.cpu0.data  30829635171                       # number of ReadReq miss cycles
system.cpu0.dcache.ReadReq_miss_latency::total  30829635171                       # number of ReadReq miss cycles
system.cpu0.dcache.ReadReq_accesses::.cpu0.data     11113063                       # number of ReadReq accesses(hits+misses)
system.cpu0.dcache.ReadReq_accesses::total     11113063                       # number of ReadReq accesses(hits+misses)
system.cpu0.dcache.ReadReq_miss_rate::.cpu0.data     0.031284                       # miss rate for ReadReq accesses
system.cpu0.dcache.ReadReq_miss_rate::total     0.031284                       # miss rate for ReadReq accesses
system.cpu0.dcache.ReadReq_avg_miss_latency::.cpu0.data 88677.544644                       # average ReadReq miss latency
system.cpu0.dcache.ReadReq_avg_miss_latency::total 88677.544644                       # average ReadReq miss latency
system.cpu0.dcache.ReadReq_mshr_misses::.cpu0.data       347660                       # number of ReadReq MSHR misses
system.cpu0.dcache.ReadReq_mshr_misses::total       347660                       # number of ReadReq MSHR misses
system.cpu0.dcache.ReadReq_mshr_miss_latency::.cpu0.data  30598093611                       # number of ReadReq MSHR miss cycles
system.cpu0.dcache.ReadReq_mshr_miss_latency::total  30598093611                       # number of ReadReq MSHR miss cycles
system.cpu0.dcache.ReadReq_mshr_miss_rate::.cpu0.data     0.031284                       # mshr miss rate for ReadReq accesses
system.cpu0.dcache.ReadReq_mshr_miss_rate::total     0.031284                       # mshr miss rate for ReadReq accesses
system.cpu0.dcache.ReadReq_avg_mshr_miss_latency::.cpu0.data 88011.544644                       # average ReadReq mshr miss latency
system.cpu0.dcache.ReadReq_avg_mshr_miss_latency::total 88011.544644                       # average ReadReq mshr miss latency
system.cpu0.dcache.WriteReq_hits::.cpu0.data      5557139                       # number of WriteReq hits
system.cpu0.dcache.WriteReq_hits::total       5557139                       # number of WriteReq hits
system.cpu0.dcache.WriteReq_misses::.cpu0.data          256                       # number of WriteReq misses
system.cpu0.dcache.WriteReq_misses::total          256                       # number of WriteReq misses
system.cpu0.dcache.WriteReq_miss_latency::.cpu0.data     11442213                       # number of WriteReq miss cycles
system.cpu0.dcache.WriteReq_miss_latency::total     11442213                       # number of WriteReq miss cycles
system.cpu0.dcache.WriteReq_accesses::.cpu0.data      5557395                       # number of WriteReq accesses(hits+misses)
system.cpu0.dcache.WriteReq_accesses::total      5557395                       # number of WriteReq accesses(hits+misses)
system.cpu0.dcache.WriteReq_miss_rate::.cpu0.data     0.000046                       # miss rate for WriteReq accesses
system.cpu0.dcache.WriteReq_miss_rate::total     0.000046                       # miss rate for WriteReq accesses
system.cpu0.dcache.WriteReq_avg_miss_latency::.cpu0.data 44696.144531                       # average WriteReq miss latency
system.cpu0.dcache.WriteReq_avg_miss_latency::total 44696.144531                       # average WriteReq miss latency
system.cpu0.dcache.WriteReq_mshr_misses::.cpu0.data          256                       # number of WriteReq MSHR misses
system.cpu0.dcache.WriteReq_mshr_misses::total          256                       # number of WriteReq MSHR misses
system.cpu0.dcache.WriteReq_mshr_miss_latency::.cpu0.data     11271717                       # number of WriteReq MSHR miss cycles
system.cpu0.dcache.WriteReq_mshr_miss_latency::total     11271717                       # number of WriteReq MSHR miss cycles
system.cpu0.dcache.WriteReq_mshr_miss_rate::.cpu0.data     0.000046                       # mshr miss rate for WriteReq accesses
system.cpu0.dcache.WriteReq_mshr_miss_rate::total     0.000046                       # mshr miss rate for WriteReq accesses
system.cpu0.dcache.WriteReq_avg_mshr_miss_latency::.cpu0.data 44030.144531                       # average WriteReq mshr miss latency
system.cpu0.dcache.WriteReq_avg_mshr_miss_latency::total 44030.144531                       # average WriteReq mshr miss latency
system.cpu0.dcache.tags.pwrStateResidencyTicks::UNDEFINED  67658549058                       # Cumulative time (in ticks) in various power states
system.cpu0.dcache.tags.tagsinuse            7.999914                       # Cycle average of tags in use
system.cpu0.dcache.tags.total_refs           16670458                       # Total number of references to valid blocks.
system.cpu0.dcache.tags.sampled_refs           347916                       # Sample count of references to valid blocks.
system.cpu0.dcache.tags.avg_refs            47.915181                       # Average number of references to valid blocks.
system.cpu0.dcache.tags.warmup_cycle           166167                       # Cycle when the warmup percentage was hit.
system.cpu0.dcache.tags.occ_blocks::.cpu0.data     7.999914                       # Average occupied blocks per requestor
system.cpu0.dcache.tags.occ_percent::.cpu0.data     0.999989                       # Average percentage of cache occupancy
system.cpu0.dcache.tags.occ_percent::total     0.999989                       # Average percentage of cache occupancy
system.cpu0.dcache.tags.occ_task_id_blocks::1024            8                       # Occupied blocks per task id
system.cpu0.dcache.tags.age_task_id_blocks_1024::0            8                       # Occupied blocks per task id
system.cpu0.dcache.tags.occ_task_id_percent::1024            1                       # Percentage of cache occupancy per task id
system.cpu0.dcache.tags.tag_accesses        133711580                       # Number of tag accesses
system.cpu0.dcache.tags.data_accesses       133711580                       # Number of data accesses
system.cpu0.dcache.tags.repl_invalid                0                       # Number of initial replacements
system.cpu0.dcache.tags.repl_valid_tag              0                       # Number of local replacements
system.cpu0.dcache.tags.repl_valid_data             0                       # Number of global replacements
system.cpu1.numPwrStateTransitions                  1                       # Number of power state transitions
system.cpu1.pwrStateResidencyTicks::ON    67658549058                       # Cumulative time (in ticks) in various power states
system.cpu1.icache.pwrStateResidencyTicks::UNDEFINED  67658549058                       # Cumulative time (in ticks) in various power states
system.cpu1.icache.demand_hits::.cpu1.inst        33129                       # number of demand (read+write) hits
system.cpu1.icache.demand_hits::total           33129                       # number of demand (read+write) hits
system.cpu1.icache.overall_hits::.cpu1.inst        33129                       # number of overall hits
system.cpu1.icache.overall_hits::total          33129                       # number of overall hits
system.cpu1.icache.demand_misses::.cpu1.inst          633                       # number of demand (read+write) misses
system.cpu1.icache.demand_misses::total           633                       # number of demand (read+write) misses
system.cpu1.icache.overall_misses::.cpu1.inst          633                       # number of overall misses
system.cpu1.icache.overall_misses::total          633                       # number of overall misses
system.cpu1.icache.demand_miss_latency::.cpu1.inst     53763183                       # number of demand (read+write) miss cycles
system.cpu1.icache.demand_miss_latency::total     53763183                       # number of demand (read+write) miss cycles
system.cpu1.icache.overall_miss_latency::.cpu1.inst     53763183                       # number of overall miss cycles
system.cpu1.icache.overall_miss_latency::total     53763183                       # number of overall miss cycles
system.cpu1.icache.demand_accesses::.cpu1.inst        33762                       # number of demand (read+write) accesses
system.cpu1.icache.demand_accesses::total        33762                       # number of demand (read+write) accesses
system.cpu1.icache.overall_accesses::.cpu1.inst        33762                       # number of overall (read+write) accesses
system.cpu1.icache.overall_accesses::total        33762                       # number of overall (read+write) accesses
system.cpu1.icache.demand_miss_rate::.cpu1.inst     0.018749                       # miss rate for demand accesses
system.cpu1.icache.demand_miss_rate::total     0.018749                       # miss rate for demand accesses
system.cpu1.icache.overall_miss_rate::.cpu1.inst     0.018749                       # miss rate for overall accesses
system.cpu1.icache.overall_miss_rate::total     0.018749                       # miss rate for overall accesses
system.cpu1.icache.demand_avg_miss_latency::.cpu1.inst 84933.938389                       # average overall miss latency
system.cpu1.icache.demand_avg_miss_latency::total 84933.938389                       # average overall miss latency
system.cpu1.icache.overall_avg_miss_latency::.cpu1.inst 84933.938389                       # average overall miss latency
system.cpu1.icache.overall_avg_miss_latency::total 84933.938389                       # average overall miss latency
system.cpu1.icache.blocked_cycles::no_mshrs            0                       # number of cycles access was blocked
system.cpu1.icache.blocked_cycles::no_targets            0                       # number of cycles access was blocked
system.cpu1.icache.blocked::no_mshrs                0                       # number of cycles access was blocked
system.cpu1.icache.blocked::no_targets              0                       # number of cycles access was blocked
system.cpu1.icache.avg_blocked_cycles::no_mshrs          nan                       # average number of cycles each access was blocked
system.cpu1.icache.avg_blocked_cycles::no_targets          nan                       # average number of cycles each access was blocked
system.cpu1.icache.writebacks::.writebacks          136                       # number of writebacks
system.cpu1.icache.writebacks::total              136                       # number of writebacks
system.cpu1.icache.demand_mshr_misses::.cpu1.inst          633                       # number of demand (read+write) MSHR misses
system.cpu1.icache.demand_mshr_misses::total          633                       # number of demand (read+write) MSHR misses
system.cpu1.icache.overall_mshr_misses::.cpu1.inst          633                       # number of overall MSHR misses
system.cpu1.icache.overall_mshr_misses::total          633                       # number of overall MSHR misses
system.cpu1.icache.demand_mshr_miss_latency::.cpu1.inst     53341605                       # number of demand (read+write) MSHR miss cycles
system.cpu1.icache.demand_mshr_miss_latency::total     53341605                       # number of demand (read+write) MSHR miss cycles
system.cpu1.icache.overall_mshr_miss_latency::.cpu1.inst     53341605                       # number of overall MSHR miss cycles
system.cpu1.icache.overall_mshr_miss_latency::total     53341605                       # number of overall MSHR miss cycles
system.cpu1.icache.demand_mshr_miss_rate::.cpu1.inst     0.018749                       # mshr miss rate for demand accesses
system.cpu1.icache.demand_mshr_miss_rate::total     0.018749                       # mshr miss rate for demand accesses
system.cpu1.icache.overall_mshr_miss_rate::.cpu1.inst     0.018749                       # mshr miss rate for overall accesses
system.cpu1.icache.overall_mshr_miss_rate::total     0.018749                       # mshr miss rate for overall accesses
system.cpu1.icache.demand_avg_mshr_miss_latency::.cpu1.inst 84267.938389                       # average overall mshr miss latency
system.cpu1.icache.demand_avg_mshr_miss_latency::total 84267.938389                       # average overall mshr miss latency
system.cpu1.icache.overall_avg_mshr_miss_latency::.cpu1.inst 84267.938389                       # average overall mshr miss latency
system.cpu1.icache.overall_avg_mshr_miss_latency::total 84267.938389                       # average overall mshr miss latency
system.cpu1.icache.replacements                   136                       # number of replacements
system.cpu1.icache.ReadReq_hits::.cpu1.inst        33129                       # number of ReadReq hits
system.cpu1.icache.ReadReq_hits::total          33129                       # number of ReadReq hits
system.cpu1.icache.ReadReq_misses::.cpu1.inst          633                       # number of ReadReq misses
system.cpu1.icache.ReadReq_misses::total          633                       # number of ReadReq misses
system.cpu1.icache.ReadReq_miss_latency::.cpu1.inst     53763183                       # number of ReadReq miss cycles
system.cpu1.icache.ReadReq_miss_latency::total     53763183                       # number of ReadReq miss cycles
system.cpu1.icache.ReadReq_accesses::.cpu1.inst        33762                       # number of ReadReq accesses(hits+misses)
system.cpu1.icache.ReadReq_accesses::total        33762                       # number of ReadReq accesses(hits+misses)
system.cpu1.icache.ReadReq_miss_rate::.cpu1.inst     0.018749                       # miss rate for ReadReq accesses
system.cpu1.icache.ReadReq_miss_rate::total     0.018749                       # miss rate for ReadReq accesses
system.cpu1.icache.ReadReq_avg_miss_latency::.cpu1.inst 84933.938389                       # average ReadReq miss latency
system.cpu1.icache.ReadReq_avg_miss_latency::total 84933.938389                       # average ReadReq miss latency
system.cpu1.icache.ReadReq_mshr_misses::.cpu1.inst          633                       # number of ReadReq MSHR misses
system.cpu1.icache.ReadReq_mshr_misses::total          633                       # number of ReadReq MSHR misses
system.cpu1.icache.ReadReq_mshr_miss_latency::.cpu1.inst     53341605                       # number of ReadReq MSHR miss cycles
system.cpu1.icache.ReadReq_mshr_miss_latency::total     53341605                       # number of ReadReq MSHR miss cycles
system.cpu1.icache.ReadReq_mshr_miss_rate::.cpu1.inst     0.018749                       # mshr miss rate for ReadReq accesses
system.cpu1.icache.ReadReq_mshr_miss_rate::total     0.018749                       # mshr miss rate for ReadReq accesses
system.cpu1.icache.ReadReq_avg_mshr_miss_latency::.cpu1.inst 84267.938389                       # average ReadReq mshr miss latency
system.cpu1.icache.ReadReq_avg_mshr_miss_latency::total 84267.938389                       # average ReadReq mshr miss latency
system.cpu1.icache.tags.pwrStateResidencyTicks::UNDEFINED  67658549058                       # Cumulative time (in ticks) in various power states
system.cpu1.icache.tags.tagsinuse          496.652920                       # Cycle average of tags in use
system.cpu1.icache.tags.total_refs              33762                       # Total number of references to valid blocks.
system.cpu1.icache.tags.sampled_refs              633                       # Sample count of references to valid blocks.
system.cpu1.icache.tags.avg_refs            53.336493                       # Average number of references to valid blocks.
system.cpu1.icache.tags.warmup_cycle            88245                       # Cycle when the warmup percentage was hit.
system.cpu1.icache.tags.occ_blocks::.cpu1.inst   496.652920                       # Average occupied blocks per requestor
system.cpu1.icache.tags.occ_percent::.cpu1.inst     0.970025                       # Average percentage of cache occupancy
system.cpu1.icache.tags.occ_percent::total     0.970025                       # Average percentage of cache occupancy
system.cpu1.icache.tags.occ_task_id_blocks::1024          497                       # Occupied blocks per task id
system.cpu1.icache.tags.age_task_id_blocks_1024::4          497                       # Occupied blocks per task id
system.cpu1.icache.tags.occ_task_id_percent::1024     0.970703                       # Percentage of cache occupancy per task id
system.cpu1.icache.tags.tag_accesses           270729                       # Number of tag accesses
system.cpu1.icache.tags.data_accesses          270729                       # Number of data accesses
system.cpu1.icache.tags.repl_invalid                0                       # Number of initial replacements
system.cpu1.icache.tags.repl_valid_tag              0                       # Number of local replacements
system.cpu1.icache.tags.repl_valid_data             0                       # Number of global replacements
system.cpu1.dtb.walker.pwrStateResidencyTicks::UNDEFINED  67658549058                       # Cumulative time (in ticks) in various power states
system.cpu1.interrupts.clk_domain.clock          5328                       # Clock period in ticks
system.cpu1.itb_walker_cache.pwrStateResidencyTicks::UNDEFINED  67658549058                       # Cumulative time (in ticks) in various power states
system.cpu1.itb_walker_cache.blocked_cycles::no_mshrs            0                       # number of cycles access was blocked
system.cpu1.itb_walker_cache.blocked_cycles::no_targets            0                       # number of cycles access was blocked
system.cpu1.itb_walker_cache.blocked::no_mshrs            0                       # number of cycles access was blocked
system.cpu1.itb_walker_cache.blocked::no_targets            0                       # number of cycles access was blocked
system.cpu1.itb_walker_cache.avg_blocked_cycles::no_mshrs          nan                       # average number of cycles each access was blocked
system.cpu1.itb_walker_cache.avg_blocked_cycles::no_targets          nan                       # average number of cycles each access was blocked
system.cpu1.itb_walker_cache.replacements            0                       # number of replacements
system.cpu1.itb_walker_cache.tags.pwrStateResidencyTicks::UNDEFINED  67658549058                       # Cumulative time (in ticks) in various power states
system.cpu1.itb_walker_cache.tags.tagsinuse            0                       # Cycle average of tags in use
system.cpu1.itb_walker_cache.tags.total_refs            0                       # Total number of references to valid blocks.
system.cpu1.itb_walker_cache.tags.sampled_refs            0                       # Sample count of references to valid blocks.
system.cpu1.itb_walker_cache.tags.avg_refs          nan                       # Average number of references to valid blocks.
system.cpu1.itb_walker_cache.tags.warmup_cycle            0                       # Cycle when the warmup percentage was hit.
system.cpu1.itb_walker_cache.tags.tag_accesses            0                       # Number of tag accesses
system.cpu1.itb_walker_cache.tags.data_accesses            0                       # Number of data accesses
system.cpu1.itb_walker_cache.tags.repl_invalid            0                       # Number of initial replacements
system.cpu1.itb_walker_cache.tags.repl_valid_tag            0                       # Number of local replacements
system.cpu1.itb_walker_cache.tags.repl_valid_data            0                       # Number of global replacements
system.cpu1.itb.walker.pwrStateResidencyTicks::UNDEFINED  67658549058                       # Cumulative time (in ticks) in various power states
system.cpu1.dtb_walker_cache.pwrStateResidencyTicks::UNDEFINED  67658549058                       # Cumulative time (in ticks) in various power states
system.cpu1.dtb_walker_cache.blocked_cycles::no_mshrs            0                       # number of cycles access was blocked
system.cpu1.dtb_walker_cache.blocked_cycles::no_targets            0                       # number of cycles access was blocked
system.cpu1.dtb_walker_cache.blocked::no_mshrs            0                       # number of cycles access was blocked
system.cpu1.dtb_walker_cache.blocked::no_targets            0                       # number of cycles access was blocked
system.cpu1.dtb_walker_cache.avg_blocked_cycles::no_mshrs          nan                       # average number of cycles each access was blocked
system.cpu1.dtb_walker_cache.avg_blocked_cycles::no_targets          nan                       # average number of cycles each access was blocked
system.cpu1.dtb_walker_cache.replacements            0                       # number of replacements
system.cpu1.dtb_walker_cache.tags.pwrStateResidencyTicks::UNDEFINED  67658549058                       # Cumulative time (in ticks) in various power states
system.cpu1.dtb_walker_cache.tags.tagsinuse            0                       # Cycle average of tags in use
system.cpu1.dtb_walker_cache.tags.total_refs            0                       # Total number of references to valid blocks.
system.cpu1.dtb_walker_cache.tags.sampled_refs            0                       # Sample count of references to valid blocks.
system.cpu1.dtb_walker_cache.tags.avg_refs          nan                       # Average number of references to valid blocks.
system.cpu1.dtb_walker_cache.tags.warmup_cycle            0                       # Cycle when the warmup percentage was hit.
system.cpu1.dtb_walker_cache.tags.tag_accesses            0                       # Number of tag accesses
system.cpu1.dtb_walker_cache.tags.data_accesses            0                       # Number of data accesses
system.cpu1.dtb_walker_cache.tags.repl_invalid            0                       # Number of initial replacements
system.cpu1.dtb_walker_cache.tags.repl_valid_tag            0                       # Number of local replacements
system.cpu1.dtb_walker_cache.tags.repl_valid_data            0                       # Number of global replacements
system.cpu1.dcache.pwrStateResidencyTicks::UNDEFINED  67658549058                       # Cumulative time (in ticks) in various power states
system.cpu1.dcache.demand_hits::.cpu1.data         5905                       # number of demand (read+write) hits
system.cpu1.dcache.demand_hits::total            5905                       # number of demand (read+write) hits
system.cpu1.dcache.overall_hits::.cpu1.data         5905                       # number of overall hits
system.cpu1.dcache.overall_hits::total           5905                       # number of overall hits
system.cpu1.dcache.demand_misses::.cpu1.data         1158                       # number of demand (read+write) misses
system.cpu1.dcache.demand_misses::total          1158                       # number of demand (read+write) misses
system.cpu1.dcache.overall_misses::.cpu1.data         1158                       # number of overall misses
system.cpu1.dcache.overall_misses::total         1158                       # number of overall misses
system.cpu1.dcache.demand_miss_latency::.cpu1.data     41737554                       # number of demand (read+write) miss cycles
system.cpu1.dcache.demand_miss_latency::total     41737554                       # number of demand (read+write) miss cycles
system.cpu1.dcache.overall_miss_latency::.cpu1.data     41737554                       # number of overall miss cycles
system.cpu1.dcache.overall_miss_latency::total     41737554                       # number of overall miss cycles
system.cpu1.dcache.demand_accesses::.cpu1.data         7063                       # number of demand (read+write) accesses
system.cpu1.dcache.demand_accesses::total         7063                       # number of demand (read+write) accesses
system.cpu1.dcache.overall_accesses::.cpu1.data         7063                       # number of overall (read+write) accesses
system.cpu1.dcache.overall_accesses::total         7063                       # number of overall (read+write) accesses
system.cpu1.dcache.demand_miss_rate::.cpu1.data     0.163953                       # miss rate for demand accesses
system.cpu1.dcache.demand_miss_rate::total     0.163953                       # miss rate for demand accesses
system.cpu1.dcache.overall_miss_rate::.cpu1.data     0.163953                       # miss rate for overall accesses
system.cpu1.dcache.overall_miss_rate::total     0.163953                       # miss rate for overall accesses
system.cpu1.dcache.demand_avg_miss_latency::.cpu1.data 36042.792746                       # average overall miss latency
system.cpu1.dcache.demand_avg_miss_latency::total 36042.792746                       # average overall miss latency
system.cpu1.dcache.overall_avg_miss_latency::.cpu1.data 36042.792746                       # average overall miss latency
system.cpu1.dcache.overall_avg_miss_latency::total 36042.792746                       # average overall miss latency
system.cpu1.dcache.blocked_cycles::no_mshrs            0                       # number of cycles access was blocked
system.cpu1.dcache.blocked_cycles::no_targets            0                       # number of cycles access was blocked
system.cpu1.dcache.blocked::no_mshrs                0                       # number of cycles access was blocked
system.cpu1.dcache.blocked::no_targets              0                       # number of cycles access was blocked
system.cpu1.dcache.avg_blocked_cycles::no_mshrs          nan                       # average number of cycles each access was blocked
system.cpu1.dcache.avg_blocked_cycles::no_targets          nan                       # average number of cycles each access was blocked
system.cpu1.dcache.writebacks::.writebacks          920                       # number of writebacks
system.cpu1.dcache.writebacks::total              920                       # number of writebacks
system.cpu1.dcache.demand_mshr_misses::.cpu1.data         1158                       # number of demand (read+write) MSHR misses
system.cpu1.dcache.demand_mshr_misses::total         1158                       # number of demand (read+write) MSHR misses
system.cpu1.dcache.overall_mshr_misses::.cpu1.data         1158                       # number of overall MSHR misses
system.cpu1.dcache.overall_mshr_misses::total         1158                       # number of overall MSHR misses
system.cpu1.dcache.demand_mshr_miss_latency::.cpu1.data     40966326                       # number of demand (read+write) MSHR miss cycles
system.cpu1.dcache.demand_mshr_miss_latency::total     40966326                       # number of demand (read+write) MSHR miss cycles
system.cpu1.dcache.overall_mshr_miss_latency::.cpu1.data     40966326                       # number of overall MSHR miss cycles
system.cpu1.dcache.overall_mshr_miss_latency::total     40966326                       # number of overall MSHR miss cycles
system.cpu1.dcache.demand_mshr_miss_rate::.cpu1.data     0.163953                       # mshr miss rate for demand accesses
system.cpu1.dcache.demand_mshr_miss_rate::total     0.163953                       # mshr miss rate for demand accesses
system.cpu1.dcache.overall_mshr_miss_rate::.cpu1.data     0.163953                       # mshr miss rate for overall accesses
system.cpu1.dcache.overall_mshr_miss_rate::total     0.163953                       # mshr miss rate for overall accesses
system.cpu1.dcache.demand_avg_mshr_miss_latency::.cpu1.data 35376.792746                       # average overall mshr miss latency
system.cpu1.dcache.demand_avg_mshr_miss_latency::total 35376.792746                       # average overall mshr miss latency
system.cpu1.dcache.overall_avg_mshr_miss_latency::.cpu1.data 35376.792746                       # average overall mshr miss latency
system.cpu1.dcache.overall_avg_mshr_miss_latency::total 35376.792746                       # average overall mshr miss latency
system.cpu1.dcache.replacements                  1150                       # number of replacements
system.cpu1.dcache.ReadReq_hits::.cpu1.data         3014                       # number of ReadReq hits
system.cpu1.dcache.ReadReq_hits::total           3014                       # number of ReadReq hits
system.cpu1.dcache.ReadReq_misses::.cpu1.data          712                       # number of ReadReq misses
system.cpu1.dcache.ReadReq_misses::total          712                       # number of ReadReq misses
system.cpu1.dcache.ReadReq_miss_latency::.cpu1.data     17721594                       # number of ReadReq miss cycles
system.cpu1.dcache.ReadReq_miss_latency::total     17721594                       # number of ReadReq miss cycles
system.cpu1.dcache.ReadReq_accesses::.cpu1.data         3726                       # number of ReadReq accesses(hits+misses)
system.cpu1.dcache.ReadReq_accesses::total         3726                       # number of ReadReq accesses(hits+misses)
system.cpu1.dcache.ReadReq_miss_rate::.cpu1.data     0.191090                       # miss rate for ReadReq accesses
system.cpu1.dcache.ReadReq_miss_rate::total     0.191090                       # miss rate for ReadReq accesses
system.cpu1.dcache.ReadReq_avg_miss_latency::.cpu1.data 24889.879213                       # average ReadReq miss latency
system.cpu1.dcache.ReadReq_avg_miss_latency::total 24889.879213                       # average ReadReq miss latency
system.cpu1.dcache.ReadReq_mshr_misses::.cpu1.data          712                       # number of ReadReq MSHR misses
system.cpu1.dcache.ReadReq_mshr_misses::total          712                       # number of ReadReq MSHR misses
system.cpu1.dcache.ReadReq_mshr_miss_latency::.cpu1.data     17247402                       # number of ReadReq MSHR miss cycles
system.cpu1.dcache.ReadReq_mshr_miss_latency::total     17247402                       # number of ReadReq MSHR miss cycles
system.cpu1.dcache.ReadReq_mshr_miss_rate::.cpu1.data     0.191090                       # mshr miss rate for ReadReq accesses
system.cpu1.dcache.ReadReq_mshr_miss_rate::total     0.191090                       # mshr miss rate for ReadReq accesses
system.cpu1.dcache.ReadReq_avg_mshr_miss_latency::.cpu1.data 24223.879213                       # average ReadReq mshr miss latency
system.cpu1.dcache.ReadReq_avg_mshr_miss_latency::total 24223.879213                       # average ReadReq mshr miss latency
system.cpu1.dcache.WriteReq_hits::.cpu1.data         2891                       # number of WriteReq hits
system.cpu1.dcache.WriteReq_hits::total          2891                       # number of WriteReq hits
system.cpu1.dcache.WriteReq_misses::.cpu1.data          446                       # number of WriteReq misses
[...]
system.mem_ctrls.wrQLenPdf::110                     0                       # What write queue length does an incoming req see
system.mem_ctrls.wrQLenPdf::111                     0                       # What write queue length does an incoming req see
system.mem_ctrls.wrQLenPdf::112                     0                       # What write queue length does an incoming req see
system.mem_ctrls.wrQLenPdf::113                     0                       # What write queue length does an incoming req see
system.mem_ctrls.wrQLenPdf::114                     0                       # What write queue length does an incoming req see
system.mem_ctrls.wrQLenPdf::115                     0                       # What write queue length does an incoming req see
system.mem_ctrls.wrQLenPdf::116                     0                       # What write queue length does an incoming req see
system.mem_ctrls.wrQLenPdf::117                     0                       # What write queue length does an incoming req see
system.mem_ctrls.wrQLenPdf::118                     0                       # What write queue length does an incoming req see
system.mem_ctrls.wrQLenPdf::119                     0                       # What write queue length does an incoming req see
system.mem_ctrls.wrQLenPdf::120                     0                       # What write queue length does an incoming req see
system.mem_ctrls.wrQLenPdf::121                     0                       # What write queue length does an incoming req see
system.mem_ctrls.wrQLenPdf::122                     0                       # What write queue length does an incoming req see
system.mem_ctrls.wrQLenPdf::123                     0                       # What write queue length does an incoming req see
system.mem_ctrls.wrQLenPdf::124                     0                       # What write queue length does an incoming req see
system.mem_ctrls.wrQLenPdf::125                     0                       # What write queue length does an incoming req see
system.mem_ctrls.wrQLenPdf::126                     0                       # What write queue length does an incoming req see
system.mem_ctrls.wrQLenPdf::127                     0                       # What write queue length does an incoming req see
system.mem_ctrls.bytesPerActivate::samples       349036                       # Bytes accessed per row activation
system.mem_ctrls.bytesPerActivate::mean            64                       # Bytes accessed per row activation
system.mem_ctrls.bytesPerActivate::gmean    64.000000                       # Bytes accessed per row activation
system.mem_ctrls.bytesPerActivate::64-71       349036    100.00%    100.00% # Bytes accessed per row activation
system.mem_ctrls.bytesPerActivate::total       349036                       # Bytes accessed per row activation
system.mem_ctrls.rdPerTurnAround::samples            7                       # Reads before turning the bus around for writes
system.mem_ctrls.rdPerTurnAround::mean   49184.285714                       # Reads before turning the bus around for writes
system.mem_ctrls.rdPerTurnAround::gmean  22527.024018                       # Reads before turning the bus around for writes
system.mem_ctrls.rdPerTurnAround::stdev  88182.146248                       # Reads before turning the bus around for writes
system.mem_ctrls.rdPerTurnAround::8192-12287            2     28.57%     28.57% # Reads before turning the bus around for writes
system.mem_ctrls.rdPerTurnAround::16384-20479            3     42.86%     71.43% # Reads before turning the bus around for writes
system.mem_ctrls.rdPerTurnAround::20480-24575            1     14.29%     85.71% # Reads before turning the bus around for writes
system.mem_ctrls.rdPerTurnAround::245760-249855            1     14.29%    100.00% # Reads before turning the bus around for writes
system.mem_ctrls.rdPerTurnAround::total             7                       # Reads before turning the bus around for writes
system.mem_ctrls.wrPerTurnAround::samples            7                       # Writes before turning the bus around for reads
system.mem_ctrls.wrPerTurnAround::mean             18                       # Writes before turning the bus around for reads
system.mem_ctrls.wrPerTurnAround::gmean     18.000000                       # Writes before turning the bus around for reads
system.mem_ctrls.wrPerTurnAround::18                7    100.00%    100.00% # Writes before turning the bus around for reads
system.mem_ctrls.wrPerTurnAround::total             7                       # Writes before turning the bus around for reads
system.mem_ctrls.bytesReadDRAM               22330240                       # Total number of bytes read from DRAM
system.mem_ctrls.bytesReadWrQ                     256                       # Total number of bytes read from write queue
system.mem_ctrls.bytesWritten                    8064                       # Total number of bytes written to DRAM
system.mem_ctrls.bytesReadSys                22330496                       # Total read bytes from the system interface side
system.mem_ctrls.bytesWrittenSys                11200                       # Total written bytes from the system interface side
system.mem_ctrls.avgRdBW                       330.04                       # Average DRAM read bandwidth in MiByte/s
system.mem_ctrls.avgWrBW                         0.12                       # Average achieved write bandwidth in MiByte/s
system.mem_ctrls.avgRdBWSys                    330.05                       # Average system read bandwidth in MiByte/s
system.mem_ctrls.avgWrBWSys                      0.17                       # Average system write bandwidth in MiByte/s
system.mem_ctrls.peakBW                      19207.00                       # Theoretical peak bandwidth in MiByte/s
system.mem_ctrls.busUtil                         1.72                       # Data bus utilization in percentage
system.mem_ctrls.busUtilRead                     1.72                       # Data bus utilization in percentage for reads
system.mem_ctrls.busUtilWrite                    0.00                       # Data bus utilization in percentage for writes
system.mem_ctrls.totGap                   67658467140                       # Total gap between requests
system.mem_ctrls.avgGap                     193814.38                       # Average gap between requests
system.mem_ctrls.masterReadBytes::.cpu0.inst        28736                       # Per-master bytes read from memory
system.mem_ctrls.masterReadBytes::.cpu0.data     22236736                       # Per-master bytes read from memory
system.mem_ctrls.masterReadBytes::.cpu1.inst        40512                       # Per-master bytes read from memory
system.mem_ctrls.masterReadBytes::.cpu1.data        24256                       # Per-master bytes read from memory
system.mem_ctrls.masterWriteBytes::.writebacks         8064                       # Per-master bytes write to memory
system.mem_ctrls.masterReadRate::.cpu0.inst 424720.902237589878                       # Per-master bytes read from memory rate (Bytes/sec)
system.mem_ctrls.masterReadRate::.cpu0.data 328661142.007902801037                       # Per-master bytes read from memory rate (Bytes/sec)
system.mem_ctrls.masterReadRate::.cpu1.inst 598771.338789297151                       # Per-master bytes read from memory rate (Bytes/sec)
system.mem_ctrls.masterReadRate::.cpu1.data 358506.062245092588                       # Per-master bytes read from memory rate (Bytes/sec)
system.mem_ctrls.masterWriteRate::.writebacks 119186.711986495153                       # Per-master bytes write to memory rate (Bytes/sec)
system.mem_ctrls.masterReadAccesses::.cpu0.inst          449                       # Per-master read serviced memory accesses
system.mem_ctrls.masterReadAccesses::.cpu0.data       347453                       # Per-master read serviced memory accesses
system.mem_ctrls.masterReadAccesses::.cpu1.inst          633                       # Per-master read serviced memory accesses
system.mem_ctrls.masterReadAccesses::.cpu1.data          379                       # Per-master read serviced memory accesses
system.mem_ctrls.masterWriteAccesses::.writebacks          175                       # Per-master write serviced memory accesses
system.mem_ctrls.masterReadTotalLat::.cpu0.inst     16137210                       # Per-master read total memory access latency
system.mem_ctrls.masterReadTotalLat::.cpu0.data  13999015727                       # Per-master read total memory access latency
system.mem_ctrls.masterReadTotalLat::.cpu1.inst     22918855                       # Per-master read total memory access latency
system.mem_ctrls.masterReadTotalLat::.cpu1.data     14504054                       # Per-master read total memory access latency
system.mem_ctrls.masterWriteTotalLat::.writebacks 1116704032907                       # Per-master write total memory access latency
system.mem_ctrls.masterReadAvgLat::.cpu0.inst     35940.33                       # Per-master read average memory access latency
system.mem_ctrls.masterReadAvgLat::.cpu0.data     40290.39                       # Per-master read average memory access latency
system.mem_ctrls.masterReadAvgLat::.cpu1.inst     36206.72                       # Per-master read average memory access latency
system.mem_ctrls.masterReadAvgLat::.cpu1.data     38269.27                       # Per-master read average memory access latency
system.mem_ctrls.masterWriteAvgLat::.writebacks 6381165902.33                       # Per-master write average memory access latency
system.mem_ctrls.pageHitRate                     0.00                       # Row buffer hit rate, read and write combined
system.mem_ctrls.rank1.actEnergy         272084602.608020                       # Energy for activate commands per rank (pJ)
system.mem_ctrls.rank1.preEnergy         480333971.527244                       # Energy for precharge commands per rank (pJ)
system.mem_ctrls.rank1.readEnergy        478430751.119974                       # Energy for read commands per rank (pJ)
system.mem_ctrls.rank1.writeEnergy       136825.248000                       # Energy for write commands per rank (pJ)
system.mem_ctrls.rank1.refreshEnergy     5872508870.473799                       # Energy for refresh commands per rank (pJ)
system.mem_ctrls.rank1.actBackEnergy     4021017083.546417                       # Energy for active background per rank (pJ)
system.mem_ctrls.rank1.preBackEnergy     19307819845.574478                       # Energy for precharge background per rank (pJ)
system.mem_ctrls.rank1.actPowerDownEnergy            0                       # Energy for active power-down per rank (pJ)
system.mem_ctrls.rank1.prePowerDownEnergy            0                       # Energy for precharge power-down per rank (pJ)
system.mem_ctrls.rank1.selfRefreshEnergy            0                       # Energy for self refresh per rank (pJ)
system.mem_ctrls.rank1.totalEnergy       30432331950.097893                       # Total energy per rank (pJ)
system.mem_ctrls.rank1.averagePower        449.792855                       # Core power per rank (mW)
system.mem_ctrls.rank1.totalIdleTime                0                       # Total Idle time Per DRAM Rank
system.mem_ctrls.rank1.memoryStateTime::IDLE  56568938142                       # Time in different power states
system.mem_ctrls.rank1.memoryStateTime::REF   3041150000                       # Time in different power states
system.mem_ctrls.rank1.memoryStateTime::SREF            0                       # Time in different power states
system.mem_ctrls.rank1.memoryStateTime::PRE_PDN            0                       # Time in different power states
system.mem_ctrls.rank1.memoryStateTime::ACT   8048460916                       # Time in different power states
system.mem_ctrls.rank1.memoryStateTime::ACT_PDN            0                       # Time in different power states
system.mem_ctrls.rank0.actEnergy         272193758.928020                       # Energy for activate commands per rank (pJ)
system.mem_ctrls.rank0.preEnergy         480526674.415244                       # Energy for precharge commands per rank (pJ)
system.mem_ctrls.rank0.readEnergy        478595325.263974                       # Energy for read commands per rank (pJ)
system.mem_ctrls.rank0.writeEnergy       160415.808000                       # Energy for write commands per rank (pJ)
system.mem_ctrls.rank0.refreshEnergy     5872508870.473799                       # Energy for refresh commands per rank (pJ)
system.mem_ctrls.rank0.actBackEnergy     4021717335.333619                       # Energy for active background per rank (pJ)
system.mem_ctrls.rank0.preBackEnergy     19307336423.020874                       # Energy for precharge background per rank (pJ)
system.mem_ctrls.rank0.actPowerDownEnergy            0                       # Energy for active power-down per rank (pJ)
system.mem_ctrls.rank0.prePowerDownEnergy            0                       # Energy for precharge power-down per rank (pJ)
system.mem_ctrls.rank0.selfRefreshEnergy            0                       # Energy for self refresh per rank (pJ)
system.mem_ctrls.rank0.totalEnergy       30433038803.243576                       # Total energy per rank (pJ)
system.mem_ctrls.rank0.averagePower        449.803302                       # Core power per rank (mW)
system.mem_ctrls.rank0.totalIdleTime                0                       # Total Idle time Per DRAM Rank
system.mem_ctrls.rank0.memoryStateTime::IDLE  56566949770                       # Time in different power states
system.mem_ctrls.rank0.memoryStateTime::REF   3041150000                       # Time in different power states
system.mem_ctrls.rank0.memoryStateTime::SREF            0                       # Time in different power states
system.mem_ctrls.rank0.memoryStateTime::PRE_PDN            0                       # Time in different power states
system.mem_ctrls.rank0.memoryStateTime::ACT   8050449288                       # Time in different power states
system.mem_ctrls.rank0.memoryStateTime::ACT_PDN            0                       # Time in different power states
system.cpu_clk_domain.clock                       333                       # Clock period in ticks
system.tol2bus.pwrStateResidencyTicks::UNDEFINED  67658549058                       # Cumulative time (in ticks) in various power states
system.tol2bus.trans_dist::ReadResp            349454                       # Transaction distribution
system.tol2bus.trans_dist::WritebackDirty         1622                       # Transaction distribution
system.tol2bus.trans_dist::WritebackClean          154                       # Transaction distribution
system.tol2bus.trans_dist::CleanEvict          435566                       # Transaction distribution
system.tol2bus.trans_dist::ReadExReq              702                       # Transaction distribution
system.tol2bus.trans_dist::ReadExResp             702                       # Transaction distribution
system.tol2bus.trans_dist::ReadCleanReq          1082                       # Transaction distribution
system.tol2bus.trans_dist::ReadSharedReq       348372                       # Transaction distribution
system.tol2bus.pkt_count_system.cpu0.icache.mem_side::system.l2.cpu_side          916                       # Packet count per connected master and slave (bytes)
system.tol2bus.pkt_count_system.cpu0.dcache.mem_side::system.l2.cpu_side      1043740                       # Packet count per connected master and slave (bytes)
system.tol2bus.pkt_count_system.cpu1.icache.mem_side::system.l2.cpu_side         1402                       # Packet count per connected master and slave (bytes)
system.tol2bus.pkt_count_system.cpu1.dcache.mem_side::system.l2.cpu_side         3466                       # Packet count per connected master and slave (bytes)
system.tol2bus.pkt_count::total               1049524                       # Packet count per connected master and slave (bytes)
system.tol2bus.pkt_size_system.cpu0.icache.mem_side::system.l2.cpu_side        29888                       # Cumulative packet size per connected master and slave (bytes)
system.tol2bus.pkt_size_system.cpu0.dcache.mem_side::system.l2.cpu_side     22300352                       # Cumulative packet size per connected master and slave (bytes)
system.tol2bus.pkt_size_system.cpu1.icache.mem_side::system.l2.cpu_side        49216                       # Cumulative packet size per connected master and slave (bytes)
system.tol2bus.pkt_size_system.cpu1.dcache.mem_side::system.l2.cpu_side       132992                       # Cumulative packet size per connected master and slave (bytes)
system.tol2bus.pkt_size::total               22512448                       # Cumulative packet size per connected master and slave (bytes)
system.tol2bus.snoops                           88130                       # Total snoops (count)
system.tol2bus.snoopTraffic                     11200                       # Total snoop traffic (bytes)
system.tol2bus.snoop_fanout::samples           438286                       # Request fanout histogram
system.tol2bus.snoop_fanout::mean            0.001595                       # Request fanout histogram
system.tol2bus.snoop_fanout::stdev           0.039904                       # Request fanout histogram
system.tol2bus.snoop_fanout::underflows             0      0.00%      0.00% # Request fanout histogram
system.tol2bus.snoop_fanout::0                 437587     99.84%     99.84% # Request fanout histogram
system.tol2bus.snoop_fanout::1                    699      0.16%    100.00% # Request fanout histogram
system.tol2bus.snoop_fanout::2                      0      0.00%    100.00% # Request fanout histogram
system.tol2bus.snoop_fanout::3                      0      0.00%    100.00% # Request fanout histogram
system.tol2bus.snoop_fanout::4                      0      0.00%    100.00% # Request fanout histogram
system.tol2bus.snoop_fanout::5                      0      0.00%    100.00% # Request fanout histogram
system.tol2bus.snoop_fanout::6                      0      0.00%    100.00% # Request fanout histogram
system.tol2bus.snoop_fanout::7                      0      0.00%    100.00% # Request fanout histogram
system.tol2bus.snoop_fanout::8                      0      0.00%    100.00% # Request fanout histogram
system.tol2bus.snoop_fanout::overflows              0      0.00%    100.00% # Request fanout histogram
system.tol2bus.snoop_fanout::min_value              0                       # Request fanout histogram
system.tol2bus.snoop_fanout::max_value              1                       # Request fanout histogram
system.tol2bus.snoop_fanout::total             438286                       # Request fanout histogram
system.tol2bus.reqLayer0.occupancy          233955810                       # Layer occupancy (ticks)
system.tol2bus.reqLayer0.utilization              0.3                       # Layer utilization (%)
system.tol2bus.respLayer5.occupancy           1157174                       # Layer occupancy (ticks)
system.tol2bus.respLayer5.utilization             0.0                       # Layer utilization (%)
system.tol2bus.respLayer4.occupancy            632699                       # Layer occupancy (ticks)
system.tol2bus.respLayer4.utilization             0.0                       # Layer utilization (%)
system.tol2bus.respLayer1.occupancy         347568084                       # Layer occupancy (ticks)
system.tol2bus.respLayer1.utilization             0.5                       # Layer utilization (%)
system.tol2bus.respLayer0.occupancy            449215                       # Layer occupancy (ticks)
system.tol2bus.respLayer0.utilization             0.0                       # Layer utilization (%)

---------- End Simulation Statistics   ----------
