
---------- Begin Simulation Statistics ----------
sim_seconds                                  2.116047                       # Number of seconds simulated
sim_ticks                                2116046710500                       # Number of ticks simulated
final_tick                               2116046710500                       # Number of ticks from beginning of simulation (restored from checkpoints and never reset)
sim_freq                                 1000000000000                       # Frequency of simulated ticks
host_inst_rate                                 498591                       # Simulator instruction rate (inst/s)
host_op_rate                                   738946                       # Simulator op (including micro ops) rate (op/s)
host_tick_rate                             1026516633                       # Simulator tick rate (ticks/s)
host_mem_usage                                8584508                       # Number of bytes of host memory used
host_seconds                                  2061.39                       # Real time elapsed on the host
sim_insts                                  1027788477                       # Number of instructions simulated
sim_ops                                    1523253676                       # Number of ops (including micro ops) simulated
system.voltage_domain.voltage                       1                       # Voltage in Volts
system.clk_domain.clock                          1000                       # Clock period in ticks
system.mem_ctrls.pwrStateResidencyTicks::UNDEFINED 2116046710500                       # Cumulative time (in ticks) in various power states
system.mem_ctrls.bytes_read::.cpu0.inst         29248                       # Number of bytes read from this memory
system.mem_ctrls.bytes_read::.cpu0.data      22239104                       # Number of bytes read from this memory
system.mem_ctrls.bytes_read::.cpu1.inst         60800                       # Number of bytes read from this memory
system.mem_ctrls.bytes_read::.cpu1.data      52639104                       # Number of bytes read from this memory
system.mem_ctrls.bytes_read::total           74968256                       # Number of bytes read from this memory
system.mem_ctrls.bytes_inst_read::.cpu0.inst        29248                       # Number of instructions bytes read from this memory
system.mem_ctrls.bytes_inst_read::.cpu1.inst        60800                       # Number of instructions bytes read from this memory
system.mem_ctrls.bytes_inst_read::total         90048                       # Number of instructions bytes read from this memory
system.mem_ctrls.bytes_written::.writebacks     43517120                       # Number of bytes written to this memory
system.mem_ctrls.bytes_written::total        43517120                       # Number of bytes written to this memory
system.mem_ctrls.num_reads::.cpu0.inst            457                       # Number of read requests responded to by this memory
system.mem_ctrls.num_reads::.cpu0.data         347486                       # Number of read requests responded to by this memory
system.mem_ctrls.num_reads::.cpu1.inst            950                       # Number of read requests responded to by this memory
system.mem_ctrls.num_reads::.cpu1.data         822486                       # Number of read requests responded to by this memory
system.mem_ctrls.num_reads::total             1171379                       # Number of read requests responded to by this memory
system.mem_ctrls.num_writes::.writebacks       679955                       # Number of write requests responded to by this memory
system.mem_ctrls.num_writes::total             679955                       # Number of write requests responded to by this memory
system.mem_ctrls.bw_read::.cpu0.inst            13822                       # Total read bandwidth from this memory (bytes/s)
system.mem_ctrls.bw_read::.cpu0.data         10509742                       # Total read bandwidth from this memory (bytes/s)
system.mem_ctrls.bw_read::.cpu1.inst            28733                       # Total read bandwidth from this memory (bytes/s)
system.mem_ctrls.bw_read::.cpu1.data         24876154                       # Total read bandwidth from this memory (bytes/s)
system.mem_ctrls.bw_read::total              35428450                       # Total read bandwidth from this memory (bytes/s)
system.mem_ctrls.bw_inst_read::.cpu0.inst        13822                       # Instruction read bandwidth from this memory (bytes/s)
system.mem_ctrls.bw_inst_read::.cpu1.inst        28733                       # Instruction read bandwidth from this memory (bytes/s)
system.mem_ctrls.bw_inst_read::total            42555                       # Instruction read bandwidth from this memory (bytes/s)
system.mem_ctrls.bw_write::.writebacks       20565293                       # Write bandwidth from this memory (bytes/s)
system.mem_ctrls.bw_write::total             20565293                       # Write bandwidth from this memory (bytes/s)
system.mem_ctrls.bw_total::.writebacks       20565293                       # Total bandwidth to/from this memory (bytes/s)
system.mem_ctrls.bw_total::.cpu0.inst           13822                       # Total bandwidth to/from this memory (bytes/s)
system.mem_ctrls.bw_total::.cpu0.data        10509742                       # Total bandwidth to/from this memory (bytes/s)
system.mem_ctrls.bw_total::.cpu1.inst           28733                       # Total bandwidth to/from this memory (bytes/s)
system.mem_ctrls.bw_total::.cpu1.data        24876154                       # Total bandwidth to/from this memory (bytes/s)
system.mem_ctrls.bw_total::total             55993743                       # Total bandwidth to/from this memory (bytes/s)
system.mem_ctrls.avgPriority_.writebacks::samples    679955.00                       # Average QoS priority value for accepted requests
system.mem_ctrls.avgPriority_.cpu0.inst::samples       457.00                       # Average QoS priority value for accepted requests
system.mem_ctrls.avgPriority_.cpu0.data::samples    347486.00                       # Average QoS priority value for accepted requests
system.mem_ctrls.avgPriority_.cpu1.inst::samples       950.00                       # Average QoS priority value for accepted requests
system.mem_ctrls.avgPriority_.cpu1.data::samples    821823.00                       # Average QoS priority value for accepted requests
system.mem_ctrls.priorityMinLatency      0.000000017492                       # per QoS priority minimum request to response latency (s)
system.mem_ctrls.priorityMaxLatency      0.015579364485                       # per QoS priority maximum request to response latency (s)
system.mem_ctrls.numReadWriteTurnArounds        40720                       # Number of turnarounds from READ to WRITE
system.mem_ctrls.numWriteReadTurnArounds        40720                       # Number of turnarounds from WRITE to READ
system.mem_ctrls.numStayReadState             3236992                       # Number of times bus staying in READ state
system.mem_ctrls.numStayWriteState             645699                       # Number of times bus staying in WRITE state
system.mem_ctrls.readReqs                     1171379                       # Number of read requests accepted
system.mem_ctrls.writeReqs                     679955                       # Number of write requests accepted
system.mem_ctrls.readBursts                   1171379                       # Number of DRAM read bursts, including those serviced by the write queue
system.mem_ctrls.writeBursts                   679955                       # Number of DRAM write bursts, including those merged in the write queue
system.mem_ctrls.bytesReadDRAM               74925824                       # Total number of bytes read from DRAM
system.mem_ctrls.bytesReadWrQ                   42432                       # Total number of bytes read from write queue
system.mem_ctrls.bytesWritten                43513280                       # Total number of bytes written to DRAM
system.mem_ctrls.bytesReadSys                74968256                       # Total read bytes from the system interface side
system.mem_ctrls.bytesWrittenSys             43517120                       # Total written bytes from the system interface side
system.mem_ctrls.servicedByWrQ                    663                       # Number of DRAM read bursts serviced by the write queue
system.mem_ctrls.mergedWrBursts                     0                       # Number of DRAM write bursts merged with an existing one
system.mem_ctrls.neitherReadNorWriteReqs            0                       # Number of requests that are neither read nor write
system.mem_ctrls.perBankRdBursts::0             37659                       # Per bank write bursts
system.mem_ctrls.perBankRdBursts::1             36744                       # Per bank write bursts
system.mem_ctrls.perBankRdBursts::2             36623                       # Per bank write bursts
system.mem_ctrls.perBankRdBursts::3             36605                       # Per bank write bursts
system.mem_ctrls.perBankRdBursts::4             36582                       # Per bank write bursts
system.mem_ctrls.perBankRdBursts::5             36612                       # Per bank write bursts
system.mem_ctrls.perBankRdBursts::6             36500                       # Per bank write bursts
system.mem_ctrls.perBankRdBursts::7             36562                       # Per bank write bursts
system.mem_ctrls.perBankRdBursts::8             36496                       # Per bank write bursts
system.mem_ctrls.perBankRdBursts::9             36389                       # Per bank write bursts
system.mem_ctrls.perBankRdBursts::10            36401                       # Per bank write bursts
system.mem_ctrls.perBankRdBursts::11            36583                       # Per bank write bursts
system.mem_ctrls.perBankRdBursts::12            36460                       # Per bank write bursts
system.mem_ctrls.perBankRdBursts::13            36622                       # Per bank write bursts
system.mem_ctrls.perBankRdBursts::14            36673                       # Per bank write bursts
system.mem_ctrls.perBankRdBursts::15            36776                       # Per bank write bursts
system.mem_ctrls.perBankRdBursts::16            36860                       # Per bank write bursts
system.mem_ctrls.perBankRdBursts::17            36557                       # Per bank write bursts
system.mem_ctrls.perBankRdBursts::18            36680                       # Per bank write bursts
system.mem_ctrls.perBankRdBursts::19            36609                       # Per bank write bursts
system.mem_ctrls.perBankRdBursts::20            36531                       # Per bank write bursts
system.mem_ctrls.perBankRdBursts::21            36577                       # Per bank write bursts
system.mem_ctrls.perBankRdBursts::22            36523                       # Per bank write bursts
system.mem_ctrls.perBankRdBursts::23            36477                       # Per bank write bursts
system.mem_ctrls.perBankRdBursts::24            36544                       # Per bank write bursts
system.mem_ctrls.perBankRdBursts::25            36590                       # Per bank write bursts
system.mem_ctrls.perBankRdBursts::26            36428                       # Per bank write bursts
system.mem_ctrls.perBankRdBursts::27            36405                       # Per bank write bursts
system.mem_ctrls.perBankRdBursts::28            36408                       # Per bank write bursts
system.mem_ctrls.perBankRdBursts::29            36460                       # Per bank write bursts
system.mem_ctrls.perBankRdBursts::30            36314                       # Per bank write bursts
system.mem_ctrls.perBankRdBursts::31            36466                       # Per bank write bursts
system.mem_ctrls.perBankWrBursts::0             21681                       # Per bank write bursts
system.mem_ctrls.perBankWrBursts::1             21437                       # Per bank write bursts
system.mem_ctrls.perBankWrBursts::2             21264                       # Per bank write bursts
system.mem_ctrls.perBankWrBursts::3             21208                       # Per bank write bursts
system.mem_ctrls.perBankWrBursts::4             21284                       # Per bank write bursts
system.mem_ctrls.perBankWrBursts::5             21324                       # Per bank write bursts
system.mem_ctrls.perBankWrBursts::6             21247                       # Per bank write bursts
system.mem_ctrls.perBankWrBursts::7             21190                       # Per bank write bursts
system.mem_ctrls.perBankWrBursts::8             21236                       # Per bank write bursts
system.mem_ctrls.perBankWrBursts::9             21212                       # Per bank write bursts
system.mem_ctrls.perBankWrBursts::10            21178                       # Per bank write bursts
system.mem_ctrls.perBankWrBursts::11            21247                       # Per bank write bursts
system.mem_ctrls.perBankWrBursts::12            21216                       # Per bank write bursts
system.mem_ctrls.perBankWrBursts::13            21241                       # Per bank write bursts
system.mem_ctrls.perBankWrBursts::14            21196                       # Per bank write bursts
system.mem_ctrls.perBankWrBursts::15            21328                       # Per bank write bursts
system.mem_ctrls.perBankWrBursts::16            21401                       # Per bank write bursts
system.mem_ctrls.perBankWrBursts::17            21242                       # Per bank write bursts
system.mem_ctrls.perBankWrBursts::18            21256                       # Per bank write bursts
system.mem_ctrls.perBankWrBursts::19            21274                       # Per bank write bursts
system.mem_ctrls.perBankWrBursts::20            21139                       # Per bank write bursts
system.mem_ctrls.perBankWrBursts::21            21179                       # Per bank write bursts
system.mem_ctrls.perBankWrBursts::22            21138                       # Per bank write bursts
system.mem_ctrls.perBankWrBursts::23            21150                       # Per bank write bursts
system.mem_ctrls.perBankWrBursts::24            21110                       # Per bank write bursts
system.mem_ctrls.perBankWrBursts::25            21330                       # Per bank write bursts
system.mem_ctrls.perBankWrBursts::26            21166                       # Per bank write bursts
system.mem_ctrls.perBankWrBursts::27            21099                       # Per bank write bursts
system.mem_ctrls.perBankWrBursts::28            21142                       # Per bank write bursts
system.mem_ctrls.perBankWrBursts::29            21423                       # Per bank write bursts
system.mem_ctrls.perBankWrBursts::30            21144                       # Per bank write bursts
system.mem_ctrls.perBankWrBursts::31            21213                       # Per bank write bursts
system.mem_ctrls.numRdRetry                         0                       # Number of times read queue was full causing retry
system.mem_ctrls.numWrRetry                         0                       # Number of times write queue was full causing retry
system.mem_ctrls.totGap                  2116043598500                       # Total gap between requests
system.mem_ctrls.readPktSize::0                     0                       # Read request sizes (log2)
system.mem_ctrls.readPktSize::1                     0                       # Read request sizes (log2)
system.mem_ctrls.readPktSize::2                     0                       # Read request sizes (log2)
system.mem_ctrls.readPktSize::3                     0                       # Read request sizes (log2)
system.mem_ctrls.readPktSize::4                     0                       # Read request sizes (log2)
system.mem_ctrls.readPktSize::5                     0                       # Read request sizes (log2)
system.mem_ctrls.readPktSize::6               1171379                       # Read request sizes (log2)
system.mem_ctrls.writePktSize::0                    0                       # Write request sizes (log2)
system.mem_ctrls.writePktSize::1                    0                       # Write request sizes (log2)
system.mem_ctrls.writePktSize::2                    0                       # Write request sizes (log2)
system.mem_ctrls.writePktSize::3                    0                       # Write request sizes (log2)
system.mem_ctrls.writePktSize::4                    0                       # Write request sizes (log2)
system.mem_ctrls.writePktSize::5                    0                       # Write request sizes (log2)
system.mem_ctrls.writePktSize::6               679955                       # Write request sizes (log2)
system.mem_ctrls.rdQLenPdf::0                 1028526                       # What read queue length does an incoming req see
system.mem_ctrls.rdQLenPdf::1                  142187                       # What read queue length does an incoming req see
system.mem_ctrls.rdQLenPdf::2                       3                       # What read queue length does an incoming req see
system.mem_ctrls.rdQLenPdf::3                       0                       # What read queue length does an incoming req see
system.mem_ctrls.rdQLenPdf::4                       0                       # What read queue length does an incoming req see
system.mem_ctrls.rdQLenPdf::5                       0                       # What read queue length does an incoming req see
system.mem_ctrls.rdQLenPdf::6                       0                       # What read queue length does an incoming req see
system.mem_ctrls.rdQLenPdf::7                       0                       # What read queue length does an incoming req see
system.mem_ctrls.rdQLenPdf::8                       0                       # What read queue length does an incoming req see
system.mem_ctrls.rdQLenPdf::9                       0                       # What read queue length does an incoming req see
system.mem_ctrls.rdQLenPdf::10                      0                       # What read queue length does an incoming req see
system.mem_ctrls.rdQLenPdf::11                      0                       # What read queue length does an incoming req see
system.mem_ctrls.rdQLenPdf::12                      0                       # What read queue length does an incoming req see
system.mem_ctrls.rdQLenPdf::13                      0                       # What read queue length does an incoming req see
system.mem_ctrls.rdQLenPdf::14                      0                       # What read queue length does an incoming req see
system.mem_ctrls.rdQLenPdf::15                      0                       # What read queue length does an incoming req see
system.mem_ctrls.rdQLenPdf::16                      0                       # What read queue length does an incoming req see
system.mem_ctrls.rdQLenPdf::17                      0                       # What read queue length does an incoming req see
system.mem_ctrls.rdQLenPdf::18                      0                       # What read queue length does an incoming req see
system.mem_ctrls.rdQLenPdf::19                      0                       # What read queue length does an incoming req see
system.mem_ctrls.rdQLenPdf::20                      0                       # What read queue length does an incoming req see
system.mem_ctrls.rdQLenPdf::21                      0                       # What read queue length does an incoming req see
system.mem_ctrls.rdQLenPdf::22                      0                       # What read queue length does an incoming req see
system.mem_ctrls.rdQLenPdf::23                      0                       # What read queue length does an incoming req see
system.mem_ctrls.rdQLenPdf::24                      0                       # What read queue length does an incoming req see
system.mem_ctrls.rdQLenPdf::25                      0                       # What read queue length does an incoming req see
system.mem_ctrls.rdQLenPdf::26                      0                       # What read queue length does an incoming req see
system.mem_ctrls.rdQLenPdf::27                      0                       # What read queue length does an incoming req see
system.mem_ctrls.rdQLenPdf::28                      0                       # What read queue length does an incoming req see
system.mem_ctrls.rdQLenPdf::29                      0                       # What read queue length does an incoming req see
system.mem_ctrls.rdQLenPdf::30                      0                       # What read queue length does an incoming req see
system.mem_ctrls.rdQLenPdf::31                      0                       # What read queue length does an incoming req see
system.mem_ctrls.rdQLenPdf::32                      0                       # What read queue length does an incoming req see
system.mem_ctrls.rdQLenPdf::33                      0                       # What read queue length does an incoming req see
system.mem_ctrls.rdQLenPdf::34                      0                       # What read queue length does an incoming req see
system.mem_ctrls.rdQLenPdf::35                      0                       # What read queue length does an incoming req see
system.mem_ctrls.rdQLenPdf::36                      0                       # What read queue length does an incoming req see
system.mem_ctrls.rdQLenPdf::37                      0                       # What read queue length does an incoming req see
system.mem_ctrls.rdQLenPdf::38                      0                       # What read queue length does an incoming req see
system.mem_ctrls.rdQLenPdf::39                      0                       # What read queue length does an incoming req see
system.mem_ctrls.rdQLenPdf::40                      0                       # What read queue length does an incoming req see
system.mem_ctrls.rdQLenPdf::41                      0                       # What read queue length does an incoming req see
system.mem_ctrls.rdQLenPdf::42                      0                       # What read queue length does an incoming req see
system.mem_ctrls.rdQLenPdf::43                      0                       # What read queue length does an incoming req see
system.mem_ctrls.rdQLenPdf::44                      0                       # What read queue length does an incoming req see
system.mem_ctrls.rdQLenPdf::45                      0                       # What read queue length does an incoming req see
system.mem_ctrls.rdQLenPdf::46                      0                       # What read queue length does an incoming req see
system.mem_ctrls.rdQLenPdf::47                      0                       # What read queue length does an incoming req see
system.mem_ctrls.rdQLenPdf::48                      0                       # What read queue length does an incoming req see
system.mem_ctrls.rdQLenPdf::49                      0                       # What read queue length does an incoming req see
system.mem_ctrls.rdQLenPdf::50                      0                       # What read queue length does an incoming req see
system.mem_ctrls.rdQLenPdf::51                      0                       # What read queue length does an incoming req see
system.mem_ctrls.rdQLenPdf::52                      0                       # What read queue length does an incoming req see
system.mem_ctrls.rdQLenPdf::53                      0                       # What read queue length does an incoming req see
system.mem_ctrls.rdQLenPdf::54                      0                       # What read queue length does an incoming req see
system.mem_ctrls.rdQLenPdf::55                      0                       # What read queue length does an incoming req see
system.mem_ctrls.rdQLenPdf::56                      0                       # What read queue length does an incoming req see
system.mem_ctrls.rdQLenPdf::57                      0                       # What read queue length does an incoming req see
system.mem_ctrls.rdQLenPdf::58                      0                       # What read queue length does an incoming req see
system.mem_ctrls.rdQLenPdf::59                      0                       # What read queue length does an incoming req see
system.mem_ctrls.rdQLenPdf::60                      0                       # What read queue length does an incoming req see
system.mem_ctrls.rdQLenPdf::61                      0                       # What read queue length does an incoming req see
system.mem_ctrls.rdQLenPdf::62                      0                       # What read queue length does an incoming req see
system.mem_ctrls.rdQLenPdf::63                      0                       # What read queue length does an incoming req see
system.mem_ctrls.wrQLenPdf::0                       1                       # What write queue length does an incoming req see
system.mem_ctrls.wrQLenPdf::1                       1                       # What write queue length does an incoming req see
system.mem_ctrls.wrQLenPdf::2                       1                       # What write queue length does an incoming req see
system.mem_ctrls.wrQLenPdf::3                       1                       # What write queue length does an incoming req see
system.mem_ctrls.wrQLenPdf::4                       1                       # What write queue length does an incoming req see
system.mem_ctrls.wrQLenPdf::5                       1                       # What write queue length does an incoming req see
system.mem_ctrls.wrQLenPdf::6                       1                       # What write queue length does an incoming req see
system.mem_ctrls.wrQLenPdf::7                       1                       # What write queue length does an incoming req see
system.mem_ctrls.wrQLenPdf::8                       1                       # What write queue length does an incoming req see
system.mem_ctrls.wrQLenPdf::9                       1                       # What write queue length does an incoming req see
system.mem_ctrls.wrQLenPdf::10                      1                       # What write queue length does an incoming req see
system.mem_ctrls.wrQLenPdf::11                      1                       # What write queue length does an incoming req see
system.mem_ctrls.wrQLenPdf::12                      1                       # What write queue length does an incoming req see
system.mem_ctrls.wrQLenPdf::13                      1                       # What write queue length does an incoming req see
system.mem_ctrls.wrQLenPdf::14                      1                       # What write queue length does an incoming req see
system.mem_ctrls.wrQLenPdf::15                      1                       # What write queue length does an incoming req see
system.mem_ctrls.wrQLenPdf::16                      1                       # What write queue length does an incoming req see
system.mem_ctrls.wrQLenPdf::17                      1                       # What write queue length does an incoming req see
system.mem_ctrls.wrQLenPdf::18                      1                       # What write queue length does an incoming req see
system.mem_ctrls.wrQLenPdf::19                      1                       # What write queue length does an incoming req see
system.mem_ctrls.wrQLenPdf::20                      1                       # What write queue length does an incoming req see
system.mem_ctrls.wrQLenPdf::21                      1                       # What write queue length does an incoming req see
system.mem_ctrls.wrQLenPdf::22                      1                       # What write queue length does an incoming req see
system.mem_ctrls.wrQLenPdf::23                      1                       # What write queue length does an incoming req see
system.mem_ctrls.wrQLenPdf::24                      1                       # What write queue length does an incoming req see
system.mem_ctrls.wrQLenPdf::25                      1                       # What write queue length does an incoming req see
system.mem_ctrls.wrQLenPdf::26                      1                       # What write queue length does an incoming req see
system.mem_ctrls.wrQLenPdf::27                      1                       # What write queue length does an incoming req see
system.mem_ctrls.wrQLenPdf::28                      1                       # What write queue length does an incoming req see
system.mem_ctrls.wrQLenPdf::29                      1                       # What write queue length does an incoming req see
system.mem_ctrls.wrQLenPdf::30                      1                       # What write queue length does an incoming req see
system.mem_ctrls.wrQLenPdf::31                      1                       # What write queue length does an incoming req see
system.mem_ctrls.wrQLenPdf::32                      1                       # What write queue length does an incoming req see
system.mem_ctrls.wrQLenPdf::33                      1                       # What write queue length does an incoming req see
system.mem_ctrls.wrQLenPdf::34                      1                       # What write queue length does an incoming req see
system.mem_ctrls.wrQLenPdf::35                      1                       # What write queue length does an incoming req see
system.mem_ctrls.wrQLenPdf::36                      1                       # What write queue length does an incoming req see
system.mem_ctrls.wrQLenPdf::37                      1                       # What write queue length does an incoming req see
system.mem_ctrls.wrQLenPdf::38                      1                       # What write queue length does an incoming req see
system.mem_ctrls.wrQLenPdf::39                      1                       # What write queue length does an incoming req see
system.mem_ctrls.wrQLenPdf::40                      1                       # What write queue length does an incoming req see
system.mem_ctrls.wrQLenPdf::41                      1                       # What write queue length does an incoming req see
system.mem_ctrls.wrQLenPdf::42                      1                       # What write queue length does an incoming req see
system.mem_ctrls.wrQLenPdf::43                      1                       # What write queue length does an incoming req see
system.mem_ctrls.wrQLenPdf::44                      1                       # What write queue length does an incoming req see
system.mem_ctrls.wrQLenPdf::45                      1                       # What write queue length does an incoming req see
system.mem_ctrls.wrQLenPdf::46                      1                       # What write queue length does an incoming req see
system.mem_ctrls.wrQLenPdf::47                  13019                       # What write queue length does an incoming req see
system.mem_ctrls.wrQLenPdf::48                  13837                       # What write queue length does an incoming req see
system.mem_ctrls.wrQLenPdf::49                  36037                       # What write queue length does an incoming req see
system.mem_ctrls.wrQLenPdf::50                  41025                       # What write queue length does an incoming req see
system.mem_ctrls.wrQLenPdf::51                  41131                       # What write queue length does an incoming req see
system.mem_ctrls.wrQLenPdf::52                  41155                       # What write queue length does an incoming req see
system.mem_ctrls.wrQLenPdf::53                  41339                       # What write queue length does an incoming req see
system.mem_ctrls.wrQLenPdf::54                  41396                       # What write queue length does an incoming req see
system.mem_ctrls.wrQLenPdf::55                  40988                       # What write queue length does an incoming req see
system.mem_ctrls.wrQLenPdf::56                  41087                       # What write queue length does an incoming req see
system.mem_ctrls.wrQLenPdf::57                  41155                       # What write queue length does an incoming req see
system.mem_ctrls.wrQLenPdf::58                  41126                       # What write queue length does an incoming req see
system.mem_ctrls.wrQLenPdf::59                  41310                       # What write queue length does an incoming req see
system.mem_ctrls.wrQLenPdf::60                  41047                       # What write queue length does an incoming req see
system.mem_ctrls.wrQLenPdf::61                  41716                       # What write queue length does an incoming req see
system.mem_ctrls.wrQLenPdf::62                  40737                       # What write queue length does an incoming req see
system.mem_ctrls.wrQLenPdf::63                  40735                       # What write queue length does an incoming req see
system.mem_ctrls.wrQLenPdf::64                  40729                       # What write queue length does an incoming req see
system.mem_ctrls.wrQLenPdf::65                    241                       # What write queue length does an incoming req see
system.mem_ctrls.wrQLenPdf::66                     74                       # What write queue length does an incoming req see
system.mem_ctrls.wrQLenPdf::67                     20                       # What write queue length does an incoming req see
system.mem_ctrls.wrQLenPdf::68                      3                       # What write queue length does an incoming req see
system.mem_ctrls.wrQLenPdf::69                      1                       # What write queue length does an incoming req see
system.mem_ctrls.wrQLenPdf::70                      0                       # What write queue length does an incoming req see
system.mem_ctrls.wrQLenPdf::71                      0                       # What write queue length does an incoming req see
system.mem_ctrls.wrQLenPdf::72                      0                       # What write queue length does an incoming req see
system.mem_ctrls.wrQLenPdf::73                      0                       # What write queue length does an incoming req see
system.mem_ctrls.wrQLenPdf::74                      0                       # What write queue length does an incoming req see
system.mem_ctrls.wrQLenPdf::75                      0                       # What write queue length does an incoming req see
system.mem_ctrls.wrQLenPdf::76                      0                       # What write queue length does an incoming req see
system.mem_ctrls.wrQLenPdf::77                      0                       # What write queue length does an incoming req see
system.mem_ctrls.wrQLenPdf::78                      0                       # What write queue length does an incoming req see
system.mem_ctrls.wrQLenPdf::79                      0                       # What write queue length does an incoming req see
system.mem_ctrls.wrQLenPdf::80                      0                       # What write queue length does an incoming req see
system.mem_ctrls.wrQLenPdf::81                      0                       # What write queue length does an incoming req see
system.mem_ctrls.wrQLenPdf::82                      0                       # What write queue length does an incoming req see
system.mem_ctrls.wrQLenPdf::83                      0                       # What write queue length does an incoming req see
system.mem_ctrls.wrQLenPdf::84                      0                       # What write queue length does an incoming req see
system.mem_ctrls.wrQLenPdf::85                      0                       # What write queue length does an incoming req see
system.mem_ctrls.wrQLenPdf::86                      0                       # What write queue length does an incoming req see
system.mem_ctrls.wrQLenPdf::87                      0                       # What write queue length does an incoming req see
system.mem_ctrls.wrQLenPdf::88                      0                       # What write queue length does an incoming req see
system.mem_ctrls.wrQLenPdf::89                      0                       # What write queue length does an incoming req see
system.mem_ctrls.wrQLenPdf::90                      0                       # What write queue length does an incoming req see
system.mem_ctrls.wrQLenPdf::91                      0                       # What write queue length does an incoming req see
system.mem_ctrls.wrQLenPdf::92                      0                       # What write queue length does an incoming req see
system.mem_ctrls.wrQLenPdf::93                      0                       # What write queue length does an incoming req see
system.mem_ctrls.wrQLenPdf::94                      0                       # What write queue length does an incoming req see
system.mem_ctrls.wrQLenPdf::95                      0                       # What write queue length does an incoming req see
system.mem_ctrls.wrQLenPdf::96                      0                       # What write queue length does an incoming req see
system.mem_ctrls.wrQLenPdf::97                      0                       # What write queue length does an incoming req see
system.mem_ctrls.wrQLenPdf::98                      0                       # What write queue length does an incoming req see
system.mem_ctrls.wrQLenPdf::99                      0                       # What write queue length does an incoming req see
system.mem_ctrls.wrQLenPdf::100                     0                       # What write queue length does an incoming req see
system.mem_ctrls.wrQLenPdf::101                     0                       # What write queue length does an incoming req see
system.mem_ctrls.wrQLenPdf::102                     0                       # What write queue length does an incoming req see
system.mem_ctrls.wrQLenPdf::103                     0                       # What write queue length does an incoming req see
system.mem_ctrls.wrQLenPdf::104                     0                       # What write queue length does an incoming req see
system.mem_ctrls.wrQLenPdf::105                     0                       # What write queue length does an incoming req see
system.mem_ctrls.wrQLenPdf::106                     0                       # What write queue length does an incoming req see
system.mem_ctrls.wrQLenPdf::107                     0                       # What write queue length does an incoming req see
system.mem_ctrls.wrQLenPdf::108                     0                       # What write queue length does an incoming req see
system.mem_ctrls.wrQLenPdf::109                     0                       # What write queue length does an incoming req see
system.mem_ctrls.wrQLenPdf::110                     0                       # What write queue length does an incoming req see
system.mem_ctrls.wrQLenPdf::111                     0                       # What write queue length does an incoming req see
system.mem_ctrls.wrQLenPdf::112                     0                       # What write queue length does an incoming req see
system.mem_ctrls.wrQLenPdf::113                     0                       # What write queue length does an incoming req see
system.mem_ctrls.wrQLenPdf::114                     0                       # What write queue length does an incoming req see
system.mem_ctrls.wrQLenPdf::115                     0                       # What write queue length does an incoming req see
system.mem_ctrls.wrQLenPdf::116                     0                       # What write queue length does an incoming req see
system.mem_ctrls.wrQLenPdf::117                     0                       # What write queue length does an incoming req see
system.mem_ctrls.wrQLenPdf::118                     0                       # What write queue length does an incoming req see
system.mem_ctrls.wrQLenPdf::119                     0                       # What write queue length does an incoming req see
system.mem_ctrls.wrQLenPdf::120                     0                       # What write queue length does an incoming req see
system.mem_ctrls.wrQLenPdf::121                     0                       # What write queue length does an incoming req see
system.mem_ctrls.wrQLenPdf::122                     0                       # What write queue length does an incoming req see
system.mem_ctrls.wrQLenPdf::123                     0                       # What write queue length does an incoming req see
system.mem_ctrls.wrQLenPdf::124                     0                       # What write queue length does an incoming req see
system.mem_ctrls.wrQLenPdf::125                     0                       # What write queue length does an incoming req see
system.mem_ctrls.wrQLenPdf::126                     0                       # What write queue length does an incoming req see
system.mem_ctrls.wrQLenPdf::127                     0                       # What write queue length does an incoming req see
system.mem_ctrls.bytesPerActivate::samples       954313                       # Bytes accessed per row activation
system.mem_ctrls.bytesPerActivate::mean    124.109218                       # Bytes accessed per row activation
system.mem_ctrls.bytesPerActivate::gmean    83.769818                       # Bytes accessed per row activation
system.mem_ctrls.bytesPerActivate::stdev   176.951911                       # Bytes accessed per row activation
system.mem_ctrls.bytesPerActivate::0-127       810819     84.96%     84.96% # Bytes accessed per row activation
system.mem_ctrls.bytesPerActivate::128-255        35035      3.67%     88.63% # Bytes accessed per row activation
system.mem_ctrls.bytesPerActivate::256-383        15614      1.64%     90.27% # Bytes accessed per row activation
system.mem_ctrls.bytesPerActivate::384-511        16510      1.73%     92.00% # Bytes accessed per row activation
system.mem_ctrls.bytesPerActivate::512-639        51238      5.37%     97.37% # Bytes accessed per row activation
system.mem_ctrls.bytesPerActivate::640-767         2955      0.31%     97.68% # Bytes accessed per row activation
system.mem_ctrls.bytesPerActivate::768-895         3345      0.35%     98.03% # Bytes accessed per row activation
system.mem_ctrls.bytesPerActivate::896-1023         2422      0.25%     98.28% # Bytes accessed per row activation
system.mem_ctrls.bytesPerActivate::1024-1151        16375      1.72%    100.00% # Bytes accessed per row activation
system.mem_ctrls.bytesPerActivate::total       954313                       # Bytes accessed per row activation
system.mem_ctrls.rdPerTurnAround::samples        40720                       # Reads before turning the bus around for writes
system.mem_ctrls.rdPerTurnAround::mean      28.749926                       # Reads before turning the bus around for writes
system.mem_ctrls.rdPerTurnAround::gmean     25.181443                       # Reads before turning the bus around for writes
system.mem_ctrls.rdPerTurnAround::stdev    446.980664                       # Reads before turning the bus around for writes
system.mem_ctrls.rdPerTurnAround::0-2047        40719    100.00%    100.00% # Reads before turning the bus around for writes
system.mem_ctrls.rdPerTurnAround::90112-92159            1      0.00%    100.00% # Reads before turning the bus around for writes
system.mem_ctrls.rdPerTurnAround::total         40720                       # Reads before turning the bus around for writes
system.mem_ctrls.wrPerTurnAround::samples        40720                       # Writes before turning the bus around for reads
system.mem_ctrls.wrPerTurnAround::mean      16.696832                       # Writes before turning the bus around for reads
system.mem_ctrls.wrPerTurnAround::gmean     16.667845                       # Writes before turning the bus around for reads
system.mem_ctrls.wrPerTurnAround::stdev      1.000042                       # Writes before turning the bus around for reads
system.mem_ctrls.wrPerTurnAround::16            26964     66.22%     66.22% # Writes before turning the bus around for reads
system.mem_ctrls.wrPerTurnAround::17              468      1.15%     67.37% # Writes before turning the bus around for reads
system.mem_ctrls.wrPerTurnAround::18            12022     29.52%     96.89% # Writes before turning the bus around for reads
system.mem_ctrls.wrPerTurnAround::19             1227      3.01%     99.90% # Writes before turning the bus around for reads
system.mem_ctrls.wrPerTurnAround::20               26      0.06%     99.97% # Writes before turning the bus around for reads
system.mem_ctrls.wrPerTurnAround::21                5      0.01%     99.98% # Writes before turning the bus around for reads
system.mem_ctrls.wrPerTurnAround::22                4      0.01%     99.99% # Writes before turning the bus around for reads
system.mem_ctrls.wrPerTurnAround::23                3      0.01%    100.00% # Writes before turning the bus around for reads
system.mem_ctrls.wrPerTurnAround::24                1      0.00%    100.00% # Writes before turning the bus around for reads
system.mem_ctrls.wrPerTurnAround::total         40720                       # Writes before turning the bus around for reads
system.mem_ctrls.masterReadBytes::.cpu0.inst        29248                       # Per-master bytes read from memory
system.mem_ctrls.masterReadBytes::.cpu0.data     22239104                       # Per-master bytes read from memory
system.mem_ctrls.masterReadBytes::.cpu1.inst        60800                       # Per-master bytes read from memory
system.mem_ctrls.masterReadBytes::.cpu1.data     52596672                       # Per-master bytes read from memory
system.mem_ctrls.masterWriteBytes::.writebacks     43513280                       # Per-master bytes write to memory
system.mem_ctrls.masterReadRate::.cpu0.inst 13822.001118816985                       # Per-master bytes read from memory rate (Bytes/sec)
system.mem_ctrls.masterReadRate::.cpu0.data 10509741.533420654014                       # Per-master bytes read from memory rate (Bytes/sec)
system.mem_ctrls.masterReadRate::.cpu1.inst 28732.825082879946                       # Per-master bytes read from memory rate (Bytes/sec)
system.mem_ctrls.masterReadRate::.cpu1.data 24856101.587460678071                       # Per-master bytes read from memory rate (Bytes/sec)
system.mem_ctrls.masterWriteRate::.writebacks 20563478.010236483067                       # Per-master bytes write to memory rate (Bytes/sec)
system.mem_ctrls.masterReadAccesses::.cpu0.inst          457                       # Per-master read serviced memory accesses
system.mem_ctrls.masterReadAccesses::.cpu0.data       347486                       # Per-master read serviced memory accesses
system.mem_ctrls.masterReadAccesses::.cpu1.inst          950                       # Per-master read serviced memory accesses
system.mem_ctrls.masterReadAccesses::.cpu1.data       822486                       # Per-master read serviced memory accesses
system.mem_ctrls.masterWriteAccesses::.writebacks       679955                       # Per-master write serviced memory accesses
system.mem_ctrls.masterReadTotalLat::.cpu0.inst     14284325                       # Per-master read total memory access latency
system.mem_ctrls.masterReadTotalLat::.cpu0.data  12771547041                       # Per-master read total memory access latency
system.mem_ctrls.masterReadTotalLat::.cpu1.inst     37135368                       # Per-master read total memory access latency
system.mem_ctrls.masterReadTotalLat::.cpu1.data 104743353994                       # Per-master read total memory access latency
system.mem_ctrls.masterWriteTotalLat::.writebacks 117276284412851                       # Per-master write total memory access latency
system.mem_ctrls.masterReadAvgLat::.cpu0.inst     31256.73                       # Per-master read average memory access latency
system.mem_ctrls.masterReadAvgLat::.cpu0.data     36754.13                       # Per-master read average memory access latency
system.mem_ctrls.masterReadAvgLat::.cpu1.inst     39089.86                       # Per-master read average memory access latency
system.mem_ctrls.masterReadAvgLat::.cpu1.data    127349.71                       # Per-master read average memory access latency
system.mem_ctrls.masterWriteAvgLat::.writebacks 172476538.03                       # Per-master write average memory access latency
system.mem_ctrls.totQLat                  97088156456                       # Total ticks spent queuing
system.mem_ctrls.totMemAccLat            117566320728                       # Total ticks spent from burst creation until serviced by the DRAM
system.mem_ctrls.totBusLat                 3900825712                       # Total ticks spent in databus transfers
system.mem_ctrls.avgQLat                     82930.58                       # Average queueing delay per DRAM burst
system.mem_ctrls.avgBusLat                    3332.00                       # Average bus latency per DRAM burst
system.mem_ctrls.avgMemAccLat               100422.58                       # Average memory access latency per DRAM burst
system.mem_ctrls.avgRdBW                        35.41                       # Average DRAM read bandwidth in MiByte/s
system.mem_ctrls.avgWrBW                        20.56                       # Average achieved write bandwidth in MiByte/s
system.mem_ctrls.avgRdBWSys                     35.43                       # Average system read bandwidth in MiByte/s
system.mem_ctrls.avgWrBWSys                     20.57                       # Average system write bandwidth in MiByte/s
system.mem_ctrls.peakBW                      19207.00                       # Theoretical peak bandwidth in MiByte/s
system.mem_ctrls.busUtil                         0.29                       # Data bus utilization in percentage
system.mem_ctrls.busUtilRead                     0.18                       # Data bus utilization in percentage for reads
system.mem_ctrls.busUtilWrite                    0.11                       # Data bus utilization in percentage for writes
system.mem_ctrls.avgRdQLen                       1.01                       # Average read queue length when enqueuing
system.mem_ctrls.avgWrQLen                      56.44                       # Average write queue length when enqueuing
system.mem_ctrls.readRowHits                   883626                       # Number of row buffer hits during reads
system.mem_ctrls.writeRowHits                   12671                       # Number of row buffer hits during writes
system.mem_ctrls.readRowHitRate                 75.48                       # Row buffer hit rate for reads
system.mem_ctrls.writeRowHitRate                 1.86                       # Row buffer hit rate for writes
system.mem_ctrls.avgGap                    1142983.17                       # Average gap between requests
system.mem_ctrls.pageHitRate                    48.43                       # Row buffer hit rate, read and write combined
system.mem_ctrls_0.actEnergy             745522071.841850                       # Energy for activate commands per rank (pJ)
system.mem_ctrls_0.preEnergy             1316133196.056239                       # Energy for precharge commands per rank (pJ)
system.mem_ctrls_0.readEnergy            1608128019.390037                       # Energy for read commands per rank (pJ)
system.mem_ctrls_0.writeEnergy           803232618.383886                       # Energy for write commands per rank (pJ)
system.mem_ctrls_0.refreshEnergy         90036124606.718262                       # Energy for refresh commands per rank (pJ)
system.mem_ctrls_0.actBackEnergy         46955204786.243103                       # Energy for active background per rank (pJ)
system.mem_ctrls_0.preBackEnergy         7469637029.553491                       # Energy for precharge background per rank (pJ)
system.mem_ctrls_0.actPowerDownEnergy    163451357294.388062                       # Energy for active power-down per rank (pJ)
system.mem_ctrls_0.prePowerDownEnergy    113825183307.150574                       # Energy for precharge power-down per rank (pJ)
system.mem_ctrls_0.selfRefreshEnergy     338245463959.495361                       # Energy for self refresh per rank (pJ)
system.mem_ctrls_0.totalEnergy           764699546039.072998                       # Total energy per rank (pJ)
system.mem_ctrls_0.averagePower            361.381222                       # Core power per rank (mW)
system.mem_ctrls_0.totalIdleTime         1993271887125                       # Total Idle time Per DRAM Rank
system.mem_ctrls_0.memoryStateTime::IDLE  20450611856                       # Time in different power states
system.mem_ctrls_0.memoryStateTime::REF   46626300000                       # Time in different power states
system.mem_ctrls_0.memoryStateTime::SREF 1058881445540                       # Time in different power states
system.mem_ctrls_0.memoryStateTime::PRE_PDN 474271488750                       # Time in different power states
system.mem_ctrls_0.memoryStateTime::ACT   55649553699                       # Time in different power states
system.mem_ctrls_0.memoryStateTime::ACT_PDN 460167310655                       # Time in different power states
system.mem_ctrls_1.actEnergy             742612276.225787                       # Energy for activate commands per rank (pJ)
system.mem_ctrls_1.preEnergy             1310993534.743318                       # Energy for precharge commands per rank (pJ)
system.mem_ctrls_1.readEnergy            1603031706.730808                       # Energy for read commands per rank (pJ)
system.mem_ctrls_1.writeEnergy           800677760.735884                       # Energy for write commands per rank (pJ)
system.mem_ctrls_1.refreshEnergy         91201975429.789169                       # Energy for refresh commands per rank (pJ)
system.mem_ctrls_1.actBackEnergy         47000738481.477028                       # Energy for active background per rank (pJ)
system.mem_ctrls_1.preBackEnergy         7638744383.543201                       # Energy for precharge background per rank (pJ)
system.mem_ctrls_1.actPowerDownEnergy    165263159275.590179                       # Energy for active power-down per rank (pJ)
system.mem_ctrls_1.prePowerDownEnergy    115789877714.904037                       # Energy for precharge power-down per rank (pJ)
system.mem_ctrls_1.selfRefreshEnergy     335099522911.465637                       # Energy for self refresh per rank (pJ)
system.mem_ctrls_1.totalEnergy           766714053153.796753                       # Total energy per rank (pJ)
system.mem_ctrls_1.averagePower            362.333236                       # Core power per rank (mW)
system.mem_ctrls_1.totalIdleTime         1992661070729                       # Total Idle time Per DRAM Rank
system.mem_ctrls_1.memoryStateTime::IDLE  20969539427                       # Time in different power states
system.mem_ctrls_1.memoryStateTime::REF   47230050000                       # Time in different power states
system.mem_ctrls_1.memoryStateTime::SREF 1044938555627                       # Time in different power states
system.mem_ctrls_1.memoryStateTime::PRE_PDN 482457829046                       # Time in different power states
system.mem_ctrls_1.memoryStateTime::ACT   55182909329                       # Time in different power states
system.mem_ctrls_1.memoryStateTime::ACT_PDN 465267827071                       # Time in different power states
system.pwrStateResidencyTicks::UNDEFINED 2116046710500                       # Cumulative time (in ticks) in various power states
system.cpu_voltage_domain.voltage                   1                       # Voltage in Volts
system.cpu_clk_domain.clock                       500                       # Clock period in ticks
system.cpu0.dtb.walker.pwrStateResidencyTicks::UNDEFINED 2116046710500                       # Cumulative time (in ticks) in various power states
system.cpu0.dtb.rdAccesses                   11113130                       # TLB accesses on read requests
system.cpu0.dtb.wrAccesses                    5557434                       # TLB accesses on write requests
system.cpu0.dtb.rdMisses                         5446                       # TLB misses on read requests
system.cpu0.dtb.wrMisses                            8                       # TLB misses on write requests
system.cpu0.apic_clk_domain.clock                8000                       # Clock period in ticks
system.cpu0.interrupts.pwrStateResidencyTicks::UNDEFINED 2116046710500                       # Cumulative time (in ticks) in various power states
system.cpu0.itb.walker.pwrStateResidencyTicks::UNDEFINED 2116046710500                       # Cumulative time (in ticks) in various power states
system.cpu0.itb.rdAccesses                          0                       # TLB accesses on read requests
system.cpu0.itb.wrAccesses                   38902845                       # TLB accesses on write requests
system.cpu0.itb.rdMisses                            0                       # TLB misses on read requests
system.cpu0.itb.wrMisses                           46                       # TLB misses on write requests
system.cpu0.workload.numSyscalls                   12                       # Number of system calls
system.cpu0.pwrStateResidencyTicks::ON   2116046710500                       # Cumulative time (in ticks) in various power states
system.cpu0.numCycles                       173315931                       # number of cpu cycles simulated
system.cpu0.numWorkItemsStarted                     0                       # number of work items this cpu started
system.cpu0.numWorkItemsCompleted                   0                       # number of work items this cpu completed
system.cpu0.committedInsts                   27788477                       # Number of instructions committed
system.cpu0.committedOps                     52798458                       # Number of ops (including micro ops) committed
system.cpu0.num_int_alu_accesses             52797624                       # Number of integer alu accesses
system.cpu0.num_fp_alu_accesses                  1230                       # Number of float alu accesses
system.cpu0.num_vec_alu_accesses                    0                       # Number of vector alu accesses
system.cpu0.num_func_calls                        390                       # number of times a function call or return occured
system.cpu0.num_conditional_control_insts      2779550                       # number of instructions that are conditional controls
system.cpu0.num_int_insts                    52797624                       # number of integer instructions
system.cpu0.num_fp_insts                         1230                       # number of float instructions
system.cpu0.num_vec_insts                           0                       # number of vector instructions
system.cpu0.num_int_register_reads          105593895                       # number of times the integer registers were read
system.cpu0.num_int_register_writes          44460024                       # number of times the integer registers were written
system.cpu0.num_fp_register_reads                1409                       # number of times the floating registers were read
system.cpu0.num_fp_register_writes                687                       # number of times the floating registers were written
system.cpu0.num_vec_register_reads                  0                       # number of times the vector registers were read
system.cpu0.num_vec_register_writes                 0                       # number of times the vector registers were written
system.cpu0.num_cc_register_reads            13900419                       # number of times the CC registers were read
system.cpu0.num_cc_register_writes           16673169                       # number of times the CC registers were written
system.cpu0.num_mem_refs                     16670560                       # number of memory refs
system.cpu0.num_load_insts                   11113127                       # Number of load instructions
system.cpu0.num_store_insts                   5557433                       # Number of store instructions
system.cpu0.num_idle_cycles              166218164.256636                       # Number of idle cycles
system.cpu0.num_busy_cycles              7097766.743364                       # Number of busy cycles
system.cpu0.not_idle_fraction                0.040953                       # Percentage of non-idle cycles
system.cpu0.idle_fraction                    0.959047                       # Percentage of idle cycles
system.cpu0.Branches                          2780111                       # Number of branches fetched
system.cpu0.op_class::No_OpClass                  340      0.00%      0.00% # Class of executed instruction
system.cpu0.op_class::IntAlu                 36126995     68.42%     68.42% # Class of executed instruction
system.cpu0.op_class::IntMult                       5      0.00%     68.42% # Class of executed instruction
system.cpu0.op_class::IntDiv                       28      0.00%     68.43% # Class of executed instruction
system.cpu0.op_class::FloatAdd                    144      0.00%     68.43% # Class of executed instruction
system.cpu0.op_class::FloatCmp                      0      0.00%     68.43% # Class of executed instruction
system.cpu0.op_class::FloatCvt                      0      0.00%     68.43% # Class of executed instruction
system.cpu0.op_class::FloatMult                     0      0.00%     68.43% # Class of executed instruction
system.cpu0.op_class::FloatMultAcc                  0      0.00%     68.43% # Class of executed instruction
system.cpu0.op_class::FloatDiv                      0      0.00%     68.43% # Class of executed instruction
system.cpu0.op_class::FloatMisc                     0      0.00%     68.43% # Class of executed instruction
system.cpu0.op_class::FloatSqrt                     0      0.00%     68.43% # Class of executed instruction
system.cpu0.op_class::SimdAdd                       0      0.00%     68.43% # Class of executed instruction
system.cpu0.op_class::SimdAddAcc                    0      0.00%     68.43% # Class of executed instruction
system.cpu0.op_class::SimdAlu                     104      0.00%     68.43% # Class of executed instruction
system.cpu0.op_class::SimdCmp                       0      0.00%     68.43% # Class of executed instruction
system.cpu0.op_class::SimdCvt                      54      0.00%     68.43% # Class of executed instruction
system.cpu0.op_class::SimdMisc                    228      0.00%     68.43% # Class of executed instruction
system.cpu0.op_class::SimdMult                      0      0.00%     68.43% # Class of executed instruction
system.cpu0.op_class::SimdMultAcc                   0      0.00%     68.43% # Class of executed instruction
system.cpu0.op_class::SimdShift                     0      0.00%     68.43% # Class of executed instruction
system.cpu0.op_class::SimdShiftAcc                  0      0.00%     68.43% # Class of executed instruction
system.cpu0.op_class::SimdSqrt                      0      0.00%     68.43% # Class of executed instruction
system.cpu0.op_class::SimdFloatAdd                  0      0.00%     68.43% # Class of executed instruction
system.cpu0.op_class::SimdFloatAlu                  0      0.00%     68.43% # Class of executed instruction
system.cpu0.op_class::SimdFloatCmp                  0      0.00%     68.43% # Class of executed instruction
system.cpu0.op_class::SimdFloatCvt                  0      0.00%     68.43% # Class of executed instruction
system.cpu0.op_class::SimdFloatDiv                  0      0.00%     68.43% # Class of executed instruction
system.cpu0.op_class::SimdFloatMisc                 0      0.00%     68.43% # Class of executed instruction
system.cpu0.op_class::SimdFloatMult                 0      0.00%     68.43% # Class of executed instruction
system.cpu0.op_class::SimdFloatMultAcc              0      0.00%     68.43% # Class of executed instruction
system.cpu0.op_class::SimdFloatSqrt                 0      0.00%     68.43% # Class of executed instruction
system.cpu0.op_class::MemRead                11113059     21.05%     89.47% # Class of executed instruction
system.cpu0.op_class::MemWrite                5556944     10.52%    100.00% # Class of executed instruction
system.cpu0.op_class::FloatMemRead                 68      0.00%    100.00% # Class of executed instruction
system.cpu0.op_class::FloatMemWrite               489      0.00%    100.00% # Class of executed instruction
system.cpu0.op_class::IprAccess                     0      0.00%    100.00% # Class of executed instruction
system.cpu0.op_class::InstPrefetch                  0      0.00%    100.00% # Class of executed instruction
system.cpu0.op_class::total                  52798458                       # Class of executed instruction
system.cpu0.dcache.tags.pwrStateResidencyTicks::UNDEFINED 2116046710500                       # Cumulative time (in ticks) in various power states
system.cpu0.dcache.tags.tagsinuse            7.999997                       # Cycle average of tags in use
system.cpu0.dcache.tags.total_refs           16670564                       # Total number of references to valid blocks.
system.cpu0.dcache.tags.sampled_refs           347954                       # Sample count of references to valid blocks.
system.cpu0.dcache.tags.avg_refs            47.910253                       # Average number of references to valid blocks.
system.cpu0.dcache.tags.warmup_cycle           182500                       # Cycle when the warmup percentage was hit.
system.cpu0.dcache.tags.occ_blocks::.cpu0.data     7.999997                       # Average occupied blocks per requestor
system.cpu0.dcache.tags.occ_percent::.cpu0.data     1.000000                       # Average percentage of cache occupancy
system.cpu0.dcache.tags.occ_percent::total     1.000000                       # Average percentage of cache occupancy
system.cpu0.dcache.tags.occ_task_id_blocks::1024            8                       # Occupied blocks per task id
system.cpu0.dcache.tags.age_task_id_blocks_1024::4            8                       # Occupied blocks per task id
system.cpu0.dcache.tags.occ_task_id_percent::1024            1                       # Percentage of cache occupancy per task id
system.cpu0.dcache.tags.tag_accesses        133712466                       # Number of tag accesses
system.cpu0.dcache.tags.data_accesses       133712466                       # Number of data accesses
system.cpu0.dcache.pwrStateResidencyTicks::UNDEFINED 2116046710500                       # Cumulative time (in ticks) in various power states
system.cpu0.dcache.ReadReq_hits::.cpu0.data     10765440                       # number of ReadReq hits
system.cpu0.dcache.ReadReq_hits::total       10765440                       # number of ReadReq hits
system.cpu0.dcache.WriteReq_hits::.cpu0.data      5557170                       # number of WriteReq hits
system.cpu0.dcache.WriteReq_hits::total       5557170                       # number of WriteReq hits
system.cpu0.dcache.demand_hits::.cpu0.data     16322610                       # number of demand (read+write) hits
system.cpu0.dcache.demand_hits::total        16322610                       # number of demand (read+write) hits
system.cpu0.dcache.overall_hits::.cpu0.data     16322610                       # number of overall hits
system.cpu0.dcache.overall_hits::total       16322610                       # number of overall hits
system.cpu0.dcache.ReadReq_misses::.cpu0.data       347690                       # number of ReadReq misses
system.cpu0.dcache.ReadReq_misses::total       347690                       # number of ReadReq misses
system.cpu0.dcache.WriteReq_misses::.cpu0.data          264                       # number of WriteReq misses
system.cpu0.dcache.WriteReq_misses::total          264                       # number of WriteReq misses
system.cpu0.dcache.demand_misses::.cpu0.data       347954                       # number of demand (read+write) misses
system.cpu0.dcache.demand_misses::total        347954                       # number of demand (read+write) misses
system.cpu0.dcache.overall_misses::.cpu0.data       347954                       # number of overall misses
system.cpu0.dcache.overall_misses::total       347954                       # number of overall misses
system.cpu0.dcache.ReadReq_miss_latency::.cpu0.data  31379446000                       # number of ReadReq miss cycles
system.cpu0.dcache.ReadReq_miss_latency::total  31379446000                       # number of ReadReq miss cycles
system.cpu0.dcache.WriteReq_miss_latency::.cpu0.data     14792000                       # number of WriteReq miss cycles
system.cpu0.dcache.WriteReq_miss_latency::total     14792000                       # number of WriteReq miss cycles
system.cpu0.dcache.demand_miss_latency::.cpu0.data  31394238000                       # number of demand (read+write) miss cycles
system.cpu0.dcache.demand_miss_latency::total  31394238000                       # number of demand (read+write) miss cycles
system.cpu0.dcache.overall_miss_latency::.cpu0.data  31394238000                       # number of overall miss cycles
system.cpu0.dcache.overall_miss_latency::total  31394238000                       # number of overall miss cycles
system.cpu0.dcache.ReadReq_accesses::.cpu0.data     11113130                       # number of ReadReq accesses(hits+misses)
system.cpu0.dcache.ReadReq_accesses::total     11113130                       # number of ReadReq accesses(hits+misses)
system.cpu0.dcache.WriteReq_accesses::.cpu0.data      5557434                       # number of WriteReq accesses(hits+misses)
system.cpu0.dcache.WriteReq_accesses::total      5557434                       # number of WriteReq accesses(hits+misses)
system.cpu0.dcache.demand_accesses::.cpu0.data     16670564                       # number of demand (read+write) accesses
system.cpu0.dcache.demand_accesses::total     16670564                       # number of demand (read+write) accesses
system.cpu0.dcache.overall_accesses::.cpu0.data     16670564                       # number of overall (read+write) accesses
system.cpu0.dcache.overall_accesses::total     16670564                       # number of overall (read+write) accesses
system.cpu0.dcache.ReadReq_miss_rate::.cpu0.data     0.031286                       # miss rate for ReadReq accesses
system.cpu0.dcache.ReadReq_miss_rate::total     0.031286                       # miss rate for ReadReq accesses
system.cpu0.dcache.WriteReq_miss_rate::.cpu0.data     0.000048                       # miss rate for WriteReq accesses
system.cpu0.dcache.WriteReq_miss_rate::total     0.000048                       # miss rate for WriteReq accesses
system.cpu0.dcache.demand_miss_rate::.cpu0.data     0.020872                       # miss rate for demand accesses
system.cpu0.dcache.demand_miss_rate::total     0.020872                       # miss rate for demand accesses
system.cpu0.dcache.overall_miss_rate::.cpu0.data     0.020872                       # miss rate for overall accesses
system.cpu0.dcache.overall_miss_rate::total     0.020872                       # miss rate for overall accesses
system.cpu0.dcache.ReadReq_avg_miss_latency::.cpu0.data 90251.218039                       # average ReadReq miss latency
system.cpu0.dcache.ReadReq_avg_miss_latency::total 90251.218039                       # average ReadReq miss latency
system.cpu0.dcache.WriteReq_avg_miss_latency::.cpu0.data 56030.303030                       # average WriteReq miss latency
system.cpu0.dcache.WriteReq_avg_miss_latency::total 56030.303030                       # average WriteReq miss latency
system.cpu0.dcache.demand_avg_miss_latency::.cpu0.data 90225.253913                       # average overall miss latency
system.cpu0.dcache.demand_avg_miss_latency::total 90225.253913                       # average overall miss latency
system.cpu0.dcache.overall_avg_miss_latency::.cpu0.data 90225.253913                       # average overall miss latency
system.cpu0.dcache.overall_avg_miss_latency::total 90225.253913                       # average overall miss latency
system.cpu0.dcache.blocked_cycles::no_mshrs            0                       # number of cycles access was blocked
system.cpu0.dcache.blocked_cycles::no_targets            0                       # number of cycles access was blocked
system.cpu0.dcache.blocked::no_mshrs                0                       # number of cycles access was blocked
system.cpu0.dcache.blocked::no_targets              0                       # number of cycles access was blocked
system.cpu0.dcache.avg_blocked_cycles::no_mshrs          nan                       # average number of cycles each access was blocked
system.cpu0.dcache.avg_blocked_cycles::no_targets          nan                       # average number of cycles each access was blocked
system.cpu0.dcache.writebacks::.writebacks          549                       # number of writebacks
system.cpu0.dcache.writebacks::total              549                       # number of writebacks
system.cpu0.dcache.ReadReq_mshr_misses::.cpu0.data       347690                       # number of ReadReq MSHR misses
system.cpu0.dcache.ReadReq_mshr_misses::total       347690                       # number of ReadReq MSHR misses
system.cpu0.dcache.WriteReq_mshr_misses::.cpu0.data          264                       # number of WriteReq MSHR misses
system.cpu0.dcache.WriteReq_mshr_misses::total          264                       # number of WriteReq MSHR misses
system.cpu0.dcache.demand_mshr_misses::.cpu0.data       347954                       # number of demand (read+write) MSHR misses
system.cpu0.dcache.demand_mshr_misses::total       347954                       # number of demand (read+write) MSHR misses
system.cpu0.dcache.overall_mshr_misses::.cpu0.data       347954                       # number of overall MSHR misses
system.cpu0.dcache.overall_mshr_misses::total       347954                       # number of overall MSHR misses
system.cpu0.dcache.ReadReq_mshr_miss_latency::.cpu0.data  31031756000                       # number of ReadReq MSHR miss cycles
system.cpu0.dcache.ReadReq_mshr_miss_latency::total  31031756000                       # number of ReadReq MSHR miss cycles
system.cpu0.dcache.WriteReq_mshr_miss_latency::.cpu0.data     14528000                       # number of WriteReq MSHR miss cycles
system.cpu0.dcache.WriteReq_mshr_miss_latency::total     14528000                       # number of WriteReq MSHR miss cycles
system.cpu0.dcache.demand_mshr_miss_latency::.cpu0.data  31046284000                       # number of demand (read+write) MSHR miss cycles
system.cpu0.dcache.demand_mshr_miss_latency::total  31046284000                       # number of demand (read+write) MSHR miss cycles
system.cpu0.dcache.overall_mshr_miss_latency::.cpu0.data  31046284000                       # number of overall MSHR miss cycles
system.cpu0.dcache.overall_mshr_miss_latency::total  31046284000                       # number of overall MSHR miss cycles
system.cpu0.dcache.ReadReq_mshr_miss_rate::.cpu0.data     0.031286                       # mshr miss rate for ReadReq accesses
system.cpu0.dcache.ReadReq_mshr_miss_rate::total     0.031286                       # mshr miss rate for ReadReq accesses
system.cpu0.dcache.WriteReq_mshr_miss_rate::.cpu0.data     0.000048                       # mshr miss rate for WriteReq accesses
system.cpu0.dcache.WriteReq_mshr_miss_rate::total     0.000048                       # mshr miss rate for WriteReq accesses
system.cpu0.dcache.demand_mshr_miss_rate::.cpu0.data     0.020872                       # mshr miss rate for demand accesses
system.cpu0.dcache.demand_mshr_miss_rate::total     0.020872                       # mshr miss rate for demand accesses
system.cpu0.dcache.overall_mshr_miss_rate::.cpu0.data     0.020872                       # mshr miss rate for overall accesses
system.cpu0.dcache.overall_mshr_miss_rate::total     0.020872                       # mshr miss rate for overall accesses
system.cpu0.dcache.ReadReq_avg_mshr_miss_latency::.cpu0.data 89251.218039                       # average ReadReq mshr miss latency
system.cpu0.dcache.ReadReq_avg_mshr_miss_latency::total 89251.218039                       # average ReadReq mshr miss latency
system.cpu0.dcache.WriteReq_avg_mshr_miss_latency::.cpu0.data 55030.303030                       # average WriteReq mshr miss latency
system.cpu0.dcache.WriteReq_avg_mshr_miss_latency::total 55030.303030                       # average WriteReq mshr miss latency
system.cpu0.dcache.demand_avg_mshr_miss_latency::.cpu0.data 89225.253913                       # average overall mshr miss latency
system.cpu0.dcache.demand_avg_mshr_miss_latency::total 89225.253913                       # average overall mshr miss latency
system.cpu0.dcache.overall_avg_mshr_miss_latency::.cpu0.data 89225.253913                       # average overall mshr miss latency
system.cpu0.dcache.overall_avg_mshr_miss_latency::total 89225.253913                       # average overall mshr miss latency
system.cpu0.dcache.replacements                347946                       # number of replacements
system.cpu0.dtb_walker_cache.tags.pwrStateResidencyTicks::UNDEFINED 2116046710500                       # Cumulative time (in ticks) in various power states
system.cpu0.dtb_walker_cache.tags.tagsinuse            0                       # Cycle average of tags in use
system.cpu0.dtb_walker_cache.tags.total_refs            0                       # Total number of references to valid blocks.
system.cpu0.dtb_walker_cache.tags.sampled_refs            0                       # Sample count of references to valid blocks.
system.cpu0.dtb_walker_cache.tags.avg_refs          nan                       # Average number of references to valid blocks.
system.cpu0.dtb_walker_cache.tags.warmup_cycle            0                       # Cycle when the warmup percentage was hit.
system.cpu0.dtb_walker_cache.tags.tag_accesses            0                       # Number of tag accesses
system.cpu0.dtb_walker_cache.tags.data_accesses            0                       # Number of data accesses
system.cpu0.dtb_walker_cache.pwrStateResidencyTicks::UNDEFINED 2116046710500                       # Cumulative time (in ticks) in various power states
system.cpu0.dtb_walker_cache.blocked_cycles::no_mshrs            0                       # number of cycles access was blocked
system.cpu0.dtb_walker_cache.blocked_cycles::no_targets            0                       # number of cycles access was blocked
system.cpu0.dtb_walker_cache.blocked::no_mshrs            0                       # number of cycles access was blocked
system.cpu0.dtb_walker_cache.blocked::no_targets            0                       # number of cycles access was blocked
system.cpu0.dtb_walker_cache.avg_blocked_cycles::no_mshrs          nan                       # average number of cycles each access was blocked
system.cpu0.dtb_walker_cache.avg_blocked_cycles::no_targets          nan                       # average number of cycles each access was blocked
system.cpu0.dtb_walker_cache.replacements            0                       # number of replacements
system.cpu0.icache.tags.pwrStateResidencyTicks::UNDEFINED 2116046710500                       # Cumulative time (in ticks) in various power states
[...]
system.l2.ReadCleanReq_mshr_misses::.cpu1.inst          950                       # number of ReadCleanReq MSHR misses
system.l2.ReadCleanReq_mshr_misses::total         1407                       # number of ReadCleanReq MSHR misses
system.l2.ReadSharedReq_mshr_misses::.cpu0.data       347355                       # number of ReadSharedReq MSHR misses
system.l2.ReadSharedReq_mshr_misses::.cpu1.data        72684                       # number of ReadSharedReq MSHR misses
system.l2.ReadSharedReq_mshr_misses::total       420039                       # number of ReadSharedReq MSHR misses
system.l2.demand_mshr_misses::.cpu0.inst          457                       # number of demand (read+write) MSHR misses
system.l2.demand_mshr_misses::.cpu0.data       347486                       # number of demand (read+write) MSHR misses
system.l2.demand_mshr_misses::.cpu1.inst          950                       # number of demand (read+write) MSHR misses
system.l2.demand_mshr_misses::.cpu1.data       822486                       # number of demand (read+write) MSHR misses
system.l2.demand_mshr_misses::total           1171379                       # number of demand (read+write) MSHR misses
system.l2.overall_mshr_misses::.cpu0.inst          457                       # number of overall MSHR misses
system.l2.overall_mshr_misses::.cpu0.data       347486                       # number of overall MSHR misses
system.l2.overall_mshr_misses::.cpu1.inst          950                       # number of overall MSHR misses
system.l2.overall_mshr_misses::.cpu1.data       822486                       # number of overall MSHR misses
system.l2.overall_mshr_misses::total          1171379                       # number of overall MSHR misses
system.l2.ReadExReq_mshr_miss_latency::.cpu0.data     11421000                       # number of ReadExReq MSHR miss cycles
system.l2.ReadExReq_mshr_miss_latency::.cpu1.data 121278796500                       # number of ReadExReq MSHR miss cycles
system.l2.ReadExReq_mshr_miss_latency::total 121290217500                       # number of ReadExReq MSHR miss cycles
system.l2.ReadCleanReq_mshr_miss_latency::.cpu0.inst     33033000                       # number of ReadCleanReq MSHR miss cycles
system.l2.ReadCleanReq_mshr_miss_latency::.cpu1.inst     76184500                       # number of ReadCleanReq MSHR miss cycles
system.l2.ReadCleanReq_mshr_miss_latency::total    109217500                       # number of ReadCleanReq MSHR miss cycles
system.l2.ReadSharedReq_mshr_miss_latency::.cpu0.data  27028273500                       # number of ReadSharedReq MSHR miss cycles
system.l2.ReadSharedReq_mshr_miss_latency::.cpu1.data  17219744000                       # number of ReadSharedReq MSHR miss cycles
system.l2.ReadSharedReq_mshr_miss_latency::total  44248017500                       # number of ReadSharedReq MSHR miss cycles
system.l2.demand_mshr_miss_latency::.cpu0.inst     33033000                       # number of demand (read+write) MSHR miss cycles
system.l2.demand_mshr_miss_latency::.cpu0.data  27039694500                       # number of demand (read+write) MSHR miss cycles
system.l2.demand_mshr_miss_latency::.cpu1.inst     76184500                       # number of demand (read+write) MSHR miss cycles
system.l2.demand_mshr_miss_latency::.cpu1.data 138498540500                       # number of demand (read+write) MSHR miss cycles
system.l2.demand_mshr_miss_latency::total 165647452500                       # number of demand (read+write) MSHR miss cycles
system.l2.overall_mshr_miss_latency::.cpu0.inst     33033000                       # number of overall MSHR miss cycles
system.l2.overall_mshr_miss_latency::.cpu0.data  27039694500                       # number of overall MSHR miss cycles
system.l2.overall_mshr_miss_latency::.cpu1.inst     76184500                       # number of overall MSHR miss cycles
system.l2.overall_mshr_miss_latency::.cpu1.data 138498540500                       # number of overall MSHR miss cycles
system.l2.overall_mshr_miss_latency::total 165647452500                       # number of overall MSHR miss cycles
system.l2.CleanEvict_mshr_miss_rate::.writebacks          inf                       # mshr miss rate for CleanEvict accesses
system.l2.CleanEvict_mshr_miss_rate::total          inf                       # mshr miss rate for CleanEvict accesses
system.l2.ReadExReq_mshr_miss_rate::.cpu0.data     0.496212                       # mshr miss rate for ReadExReq accesses
system.l2.ReadExReq_mshr_miss_rate::.cpu1.data     0.234145                       # mshr miss rate for ReadExReq accesses
system.l2.ReadExReq_mshr_miss_rate::total     0.234167                       # mshr miss rate for ReadExReq accesses
system.l2.ReadCleanReq_mshr_miss_rate::.cpu0.inst            1                       # mshr miss rate for ReadCleanReq accesses
system.l2.ReadCleanReq_mshr_miss_rate::.cpu1.inst     0.992685                       # mshr miss rate for ReadCleanReq accesses
system.l2.ReadCleanReq_mshr_miss_rate::total     0.995050                       # mshr miss rate for ReadCleanReq accesses
system.l2.ReadSharedReq_mshr_miss_rate::.cpu0.data     0.999036                       # mshr miss rate for ReadSharedReq accesses
system.l2.ReadSharedReq_mshr_miss_rate::.cpu1.data     0.002149                       # mshr miss rate for ReadSharedReq accesses
system.l2.ReadSharedReq_mshr_miss_rate::total     0.012292                       # mshr miss rate for ReadSharedReq accesses
system.l2.demand_mshr_miss_rate::.cpu0.inst            1                       # mshr miss rate for demand accesses
system.l2.demand_mshr_miss_rate::.cpu0.data     0.998655                       # mshr miss rate for demand accesses
system.l2.demand_mshr_miss_rate::.cpu1.inst     0.992685                       # mshr miss rate for demand accesses
system.l2.demand_mshr_miss_rate::.cpu1.data     0.022213                       # mshr miss rate for demand accesses
system.l2.demand_mshr_miss_rate::total       0.031340                       # mshr miss rate for demand accesses
system.l2.overall_mshr_miss_rate::.cpu0.inst            1                       # mshr miss rate for overall accesses
system.l2.overall_mshr_miss_rate::.cpu0.data     0.998655                       # mshr miss rate for overall accesses
system.l2.overall_mshr_miss_rate::.cpu1.inst     0.992685                       # mshr miss rate for overall accesses
system.l2.overall_mshr_miss_rate::.cpu1.data     0.022213                       # mshr miss rate for overall accesses
system.l2.overall_mshr_miss_rate::total      0.031340                       # mshr miss rate for overall accesses
system.l2.ReadExReq_avg_mshr_miss_latency::.cpu0.data 87183.206107                       # average ReadExReq mshr miss latency
system.l2.ReadExReq_avg_mshr_miss_latency::.cpu1.data 161747.763410                       # average ReadExReq mshr miss latency
system.l2.ReadExReq_avg_mshr_miss_latency::total 161734.738303                       # average ReadExReq mshr miss latency
system.l2.ReadCleanReq_avg_mshr_miss_latency::.cpu0.inst 72282.275711                       # average ReadCleanReq mshr miss latency
system.l2.ReadCleanReq_avg_mshr_miss_latency::.cpu1.inst 80194.210526                       # average ReadCleanReq mshr miss latency
system.l2.ReadCleanReq_avg_mshr_miss_latency::total 77624.378109                       # average ReadCleanReq mshr miss latency
system.l2.ReadSharedReq_avg_mshr_miss_latency::.cpu0.data 77811.672496                       # average ReadSharedReq mshr miss latency
system.l2.ReadSharedReq_avg_mshr_miss_latency::.cpu1.data 236912.442904                       # average ReadSharedReq mshr miss latency
system.l2.ReadSharedReq_avg_mshr_miss_latency::total 105342.640802                       # average ReadSharedReq mshr miss latency
system.l2.demand_avg_mshr_miss_latency::.cpu0.inst 72282.275711                       # average overall mshr miss latency
system.l2.demand_avg_mshr_miss_latency::.cpu0.data 77815.205505                       # average overall mshr miss latency
system.l2.demand_avg_mshr_miss_latency::.cpu1.inst 80194.210526                       # average overall mshr miss latency
system.l2.demand_avg_mshr_miss_latency::.cpu1.data 168390.149498                       # average overall mshr miss latency
system.l2.demand_avg_mshr_miss_latency::total 141412.346047                       # average overall mshr miss latency
system.l2.overall_avg_mshr_miss_latency::.cpu0.inst 72282.275711                       # average overall mshr miss latency
system.l2.overall_avg_mshr_miss_latency::.cpu0.data 77815.205505                       # average overall mshr miss latency
system.l2.overall_avg_mshr_miss_latency::.cpu1.inst 80194.210526                       # average overall mshr miss latency
system.l2.overall_avg_mshr_miss_latency::.cpu1.data 168390.149498                       # average overall mshr miss latency
system.l2.overall_avg_mshr_miss_latency::total 141412.346047                       # average overall mshr miss latency
system.l2.replacements                        1068805                       # number of replacements
system.membus.snoop_filter.tot_requests       2238787                       # Total number of requests made to the snoop filter.
system.membus.snoop_filter.hit_single_requests      1067408                       # Number of requests hitting in the snoop filter with a single holder of the requested data.
system.membus.snoop_filter.hit_multi_requests            0                       # Number of requests hitting in the snoop filter with multiple (>1) holders of the requested data.
system.membus.snoop_filter.tot_snoops               0                       # Total number of snoops made to the snoop filter.
system.membus.snoop_filter.hit_single_snoops            0                       # Number of snoops hitting in the snoop filter with a single holder of the requested data.
system.membus.snoop_filter.hit_multi_snoops            0                       # Number of snoops hitting in the snoop filter with multiple (>1) holders of the requested data.
system.membus.pwrStateResidencyTicks::UNDEFINED 2116046710500                       # Cumulative time (in ticks) in various power states
system.membus.trans_dist::ReadResp             421446                       # Transaction distribution
system.membus.trans_dist::WritebackDirty       679955                       # Transaction distribution
system.membus.trans_dist::CleanEvict           387453                       # Transaction distribution
system.membus.trans_dist::ReadExReq            749933                       # Transaction distribution
system.membus.trans_dist::ReadExResp           749933                       # Transaction distribution
system.membus.trans_dist::ReadSharedReq        421446                       # Transaction distribution
system.membus.pkt_count_system.l2.mem_side::system.mem_ctrls.port      3410166                       # Packet count per connected master and slave (bytes)
system.membus.pkt_count_system.l2.mem_side::total      3410166                       # Packet count per connected master and slave (bytes)
system.membus.pkt_count::total                3410166                       # Packet count per connected master and slave (bytes)
system.membus.pkt_size_system.l2.mem_side::system.mem_ctrls.port    118485376                       # Cumulative packet size per connected master and slave (bytes)
system.membus.pkt_size_system.l2.mem_side::total    118485376                       # Cumulative packet size per connected master and slave (bytes)
system.membus.pkt_size::total               118485376                       # Cumulative packet size per connected master and slave (bytes)
system.membus.snoops                                0                       # Total snoops (count)
system.membus.snoopTraffic                          0                       # Total snoop traffic (bytes)
system.membus.snoop_fanout::samples           1171379                       # Request fanout histogram
system.membus.snoop_fanout::mean                    0                       # Request fanout histogram
system.membus.snoop_fanout::stdev                   0                       # Request fanout histogram
system.membus.snoop_fanout::underflows              0      0.00%      0.00% # Request fanout histogram
system.membus.snoop_fanout::0                 1171379    100.00%    100.00% # Request fanout histogram
system.membus.snoop_fanout::1                       0      0.00%    100.00% # Request fanout histogram
system.membus.snoop_fanout::overflows               0      0.00%    100.00% # Request fanout histogram
system.membus.snoop_fanout::min_value               0                       # Request fanout histogram
system.membus.snoop_fanout::max_value               0                       # Request fanout histogram
system.membus.snoop_fanout::total             1171379                       # Request fanout histogram
system.membus.reqLayer4.occupancy          4983193000                       # Layer occupancy (ticks)
system.membus.reqLayer4.utilization               0.2                       # Layer utilization (%)
system.membus.respLayer1.occupancy         6403311972                       # Layer occupancy (ticks)
system.membus.respLayer1.utilization              0.3                       # Layer utilization (%)
system.tol2bus.snoop_filter.tot_requests     74751580                       # Total number of requests made to the snoop filter.
system.tol2bus.snoop_filter.hit_single_requests     37375308                       # Number of requests hitting in the snoop filter with a single holder of the requested data.
system.tol2bus.snoop_filter.hit_multi_requests            0                       # Number of requests hitting in the snoop filter with multiple (>1) holders of the requested data.
system.tol2bus.snoop_filter.tot_snoops           1481                       # Total number of snoops made to the snoop filter.
system.tol2bus.snoop_filter.hit_single_snoops         1481                       # Number of snoops hitting in the snoop filter with a single holder of the requested data.
system.tol2bus.snoop_filter.hit_multi_snoops            0                       # Number of snoops hitting in the snoop filter with multiple (>1) holders of the requested data.
system.tol2bus.pwrStateResidencyTicks::UNDEFINED 2116046710500                       # Cumulative time (in ticks) in various power states
system.tol2bus.trans_dist::ReadResp          34173715                       # Transaction distribution
system.tol2bus.trans_dist::WritebackDirty     26731107                       # Transaction distribution
system.tol2bus.trans_dist::WritebackClean          466                       # Transaction distribution
system.tol2bus.trans_dist::CleanEvict        11712540                       # Transaction distribution
system.tol2bus.trans_dist::ReadExReq          3202557                       # Transaction distribution
system.tol2bus.trans_dist::ReadExResp         3202557                       # Transaction distribution
system.tol2bus.trans_dist::ReadCleanReq          1414                       # Transaction distribution
system.tol2bus.trans_dist::ReadSharedReq     34172301                       # Transaction distribution
system.tol2bus.pkt_count_system.cpu0.icache.mem_side::system.l2.cpu_side          935                       # Packet count per connected master and slave (bytes)
system.tol2bus.pkt_count_system.cpu0.dcache.mem_side::system.l2.cpu_side      1043854                       # Packet count per connected master and slave (bytes)
system.tol2bus.pkt_count_system.cpu1.icache.mem_side::system.l2.cpu_side         2359                       # Packet count per connected master and slave (bytes)
system.tol2bus.pkt_count_system.cpu1.dcache.mem_side::system.l2.cpu_side    111080704                       # Packet count per connected master and slave (bytes)
system.tol2bus.pkt_count::total             112127852                       # Packet count per connected master and slave (bytes)
system.tol2bus.pkt_size_system.cpu0.icache.mem_side::system.l2.cpu_side        30592                       # Cumulative packet size per connected master and slave (bytes)
system.tol2bus.pkt_size_system.cpu0.dcache.mem_side::system.l2.cpu_side     22304192                       # Cumulative packet size per connected master and slave (bytes)
system.tol2bus.pkt_size_system.cpu1.icache.mem_side::system.l2.cpu_side        89728                       # Cumulative packet size per connected master and slave (bytes)
system.tol2bus.pkt_size_system.cpu1.dcache.mem_side::system.l2.cpu_side   4036960448                       # Cumulative packet size per connected master and slave (bytes)
system.tol2bus.pkt_size::total             4059384960                       # Cumulative packet size per connected master and slave (bytes)
system.tol2bus.snoops                         1068805                       # Total snoops (count)
system.tol2bus.snoopTraffic                  43517120                       # Total snoop traffic (bytes)
system.tol2bus.snoop_fanout::samples         38445077                       # Request fanout histogram
system.tol2bus.snoop_fanout::mean            0.000039                       # Request fanout histogram
system.tol2bus.snoop_fanout::stdev           0.006207                       # Request fanout histogram
system.tol2bus.snoop_fanout::underflows             0      0.00%      0.00% # Request fanout histogram
system.tol2bus.snoop_fanout::0               38443596    100.00%    100.00% # Request fanout histogram
system.tol2bus.snoop_fanout::1                   1481      0.00%    100.00% # Request fanout histogram
system.tol2bus.snoop_fanout::2                      0      0.00%    100.00% # Request fanout histogram
system.tol2bus.snoop_fanout::3                      0      0.00%    100.00% # Request fanout histogram
system.tol2bus.snoop_fanout::4                      0      0.00%    100.00% # Request fanout histogram
system.tol2bus.snoop_fanout::5                      0      0.00%    100.00% # Request fanout histogram
system.tol2bus.snoop_fanout::6                      0      0.00%    100.00% # Request fanout histogram
system.tol2bus.snoop_fanout::7                      0      0.00%    100.00% # Request fanout histogram
system.tol2bus.snoop_fanout::8                      0      0.00%    100.00% # Request fanout histogram
system.tol2bus.snoop_fanout::overflows              0      0.00%    100.00% # Request fanout histogram
system.tol2bus.snoop_fanout::min_value              0                       # Request fanout histogram
system.tol2bus.snoop_fanout::max_value              1                       # Request fanout histogram
system.tol2bus.snoop_fanout::total           38445077                       # Request fanout histogram
system.tol2bus.reqLayer0.occupancy        63427408000                       # Layer occupancy (ticks)
system.tol2bus.reqLayer0.utilization              3.0                       # Layer utilization (%)
system.tol2bus.respLayer0.occupancy            686498                       # Layer occupancy (ticks)
system.tol2bus.respLayer0.utilization             0.0                       # Layer utilization (%)
system.tol2bus.respLayer1.occupancy         523460934                       # Layer occupancy (ticks)
system.tol2bus.respLayer1.utilization             0.0                       # Layer utilization (%)
system.tol2bus.respLayer4.occupancy           1436498                       # Layer occupancy (ticks)
system.tol2bus.respLayer4.utilization             0.0                       # Layer utilization (%)
system.tol2bus.respLayer5.occupancy       55540356000                       # Layer occupancy (ticks)
system.tol2bus.respLayer5.utilization             2.6                       # Layer utilization (%)

---------- End Simulation Statistics   ----------
