
---------- Begin Simulation Statistics ----------
final_tick                                67660189083                       # Number of ticks from beginning of simulation (restored from checkpoints and never reset)
host_inst_rate                                 704765                       # Simulator instruction rate (inst/s)
host_mem_usage                                9770816                       # Number of bytes of host memory used
host_op_rate                                  1331067                       # Simulator op (including micro ops) rate (op/s)
host_seconds                                   101.42                       # Real time elapsed on the host
host_tick_rate                              667125476                       # Simulator tick rate (ticks/s)
sim_freq                                 1000000000000                       # Frequency of simulated ticks
sim_insts                                    71477510                       # Number of instructions simulated
sim_ops                                     134997455                       # Number of ops (including micro ops) simulated
sim_seconds                                  0.067660                       # Number of seconds simulated
sim_ticks                                 67660189083                       # Number of ticks simulated
system.cpu0.Branches                          2780018                       # Number of branches fetched
system.cpu0.committedInsts                   27788099                       # Number of instructions committed
system.cpu0.committedOps                     52797721                       # Number of ops (including micro ops) committed
system.cpu0.dtb.rdAccesses                   11113063                       # TLB accesses on read requests
system.cpu0.dtb.rdMisses                         5446                       # TLB misses on read requests
system.cpu0.dtb.wrAccesses                    5557395                       # TLB accesses on write requests
system.cpu0.dtb.wrMisses                            8                       # TLB misses on write requests
system.cpu0.idle_fraction                    0.000000                       # Percentage of idle cycles
system.cpu0.itb.rdAccesses                          0                       # TLB accesses on read requests
system.cpu0.itb.rdMisses                            0                       # TLB misses on read requests
system.cpu0.itb.wrAccesses                   38902351                       # TLB accesses on write requests
system.cpu0.itb.wrMisses                           46                       # TLB misses on write requests
system.cpu0.not_idle_fraction                1.000000                       # Percentage of non-idle cycles
system.cpu0.numCycles                       203183751                       # number of cpu cycles simulated
system.cpu0.numWorkItemsCompleted                   0                       # number of work items this cpu completed
system.cpu0.numWorkItemsStarted                     0                       # number of work items this cpu started
system.cpu0.num_busy_cycles              203183750.996997                       # Number of busy cycles
system.cpu0.num_cc_register_reads            13899961                       # number of times the CC registers were read
system.cpu0.num_cc_register_writes           16672913                       # number of times the CC registers were written
system.cpu0.num_conditional_control_insts      2779471                       # number of instructions that are conditional controls
system.cpu0.num_fp_alu_accesses                  1214                       # Number of float alu accesses
system.cpu0.num_fp_insts                         1214                       # number of float instructions
system.cpu0.num_fp_register_reads                1401                       # number of times the floating registers were read
system.cpu0.num_fp_register_writes                679                       # number of times the floating registers were written
system.cpu0.num_func_calls                        384                       # number of times a function call or return occured
system.cpu0.num_idle_cycles                  0.003003                       # Number of idle cycles
system.cpu0.num_int_alu_accesses             52796880                       # Number of integer alu accesses
system.cpu0.num_int_insts                    52796880                       # number of integer instructions
system.cpu0.num_int_register_reads          105592520                       # number of times the integer registers were read
system.cpu0.num_int_register_writes          44459432                       # number of times the integer registers were written
system.cpu0.num_load_insts                   11113060                       # Number of load instructions
system.cpu0.num_mem_refs                     16670454                       # number of memory refs
system.cpu0.num_store_insts                   5557394                       # Number of store instructions
system.cpu0.num_vec_alu_accesses                    0                       # Number of vector alu accesses
system.cpu0.num_vec_insts                           0                       # number of vector instructions
system.cpu0.num_vec_register_reads                  0                       # number of times the vector registers were read
system.cpu0.num_vec_register_writes                 0                       # number of times the vector registers were written
system.cpu0.op_class::No_OpClass                  336      0.00%      0.00% # Class of executed instruction
system.cpu0.op_class::IntAlu                 36126368     68.42%     68.42% # Class of executed instruction
system.cpu0.op_class::IntMult                       5      0.00%     68.42% # Class of executed instruction
system.cpu0.op_class::IntDiv                       28      0.00%     68.42% # Class of executed instruction
system.cpu0.op_class::FloatAdd                    144      0.00%     68.43% # Class of executed instruction
system.cpu0.op_class::FloatCmp                      0      0.00%     68.43% # Class of executed instruction
system.cpu0.op_class::FloatCvt                      0      0.00%     68.43% # Class of executed instruction
system.cpu0.op_class::FloatMult                     0      0.00%     68.43% # Class of executed instruction
system.cpu0.op_class::FloatMultAcc                  0      0.00%     68.43% # Class of executed instruction
system.cpu0.op_class::FloatDiv                      0      0.00%     68.43% # Class of executed instruction
system.cpu0.op_class::FloatMisc                     0      0.00%     68.43% # Class of executed instruction
system.cpu0.op_class::FloatSqrt                     0      0.00%     68.43% # Class of executed instruction
system.cpu0.op_class::SimdAdd                       0      0.00%     68.43% # Class of executed instruction
system.cpu0.op_class::SimdAddAcc                    0      0.00%     68.43% # Class of executed instruction
system.cpu0.op_class::SimdAlu                     104      0.00%     68.43% # Class of executed instruction
system.cpu0.op_class::SimdCmp                       0      0.00%     68.43% # Class of executed instruction
system.cpu0.op_class::SimdCvt                      54      0.00%     68.43% # Class of executed instruction
system.cpu0.op_class::SimdMisc                    228      0.00%     68.43% # Class of executed instruction
system.cpu0.op_class::SimdMult                      0      0.00%     68.43% # Class of executed instruction
system.cpu0.op_class::SimdMultAcc                   0      0.00%     68.43% # Class of executed instruction
system.cpu0.op_class::SimdShift                     0      0.00%     68.43% # Class of executed instruction
system.cpu0.op_class::SimdShiftAcc                  0      0.00%     68.43% # Class of executed instruction
system.cpu0.op_class::SimdDiv                       0      0.00%     68.43% # Class of executed instruction
system.cpu0.op_class::SimdSqrt                      0      0.00%     68.43% # Class of executed instruction
system.cpu0.op_class::SimdFloatAdd                  0      0.00%     68.43% # Class of executed instruction
system.cpu0.op_class::SimdFloatAlu                  0      0.00%     68.43% # Class of executed instruction
system.cpu0.op_class::SimdFloatCmp                  0      0.00%     68.43% # Class of executed instruction
system.cpu0.op_class::SimdFloatCvt                  0      0.00%     68.43% # Class of executed instruction
system.cpu0.op_class::SimdFloatDiv                  0      0.00%     68.43% # Class of executed instruction
system.cpu0.op_class::SimdFloatMisc                 0      0.00%     68.43% # Class of executed instruction
system.cpu0.op_class::SimdFloatMult                 0      0.00%     68.43% # Class of executed instruction
system.cpu0.op_class::SimdFloatMultAcc              0      0.00%     68.43% # Class of executed instruction
system.cpu0.op_class::SimdFloatSqrt                 0      0.00%     68.43% # Class of executed instruction
system.cpu0.op_class::SimdReduceAdd                 0      0.00%     68.43% # Class of executed instruction
system.cpu0.op_class::SimdReduceAlu                 0      0.00%     68.43% # Class of executed instruction
system.cpu0.op_class::SimdReduceCmp                 0      0.00%     68.43% # Class of executed instruction
system.cpu0.op_class::SimdFloatReduceAdd            0      0.00%     68.43% # Class of executed instruction
system.cpu0.op_class::SimdFloatReduceCmp            0      0.00%     68.43% # Class of executed instruction
system.cpu0.op_class::SimdAes                       0      0.00%     68.43% # Class of executed instruction
system.cpu0.op_class::SimdAesMix                    0      0.00%     68.43% # Class of executed instruction
system.cpu0.op_class::SimdSha1Hash                  0      0.00%     68.43% # Class of executed instruction
system.cpu0.op_class::SimdSha1Hash2                 0      0.00%     68.43% # Class of executed instruction
system.cpu0.op_class::SimdSha256Hash                0      0.00%     68.43% # Class of executed instruction
system.cpu0.op_class::SimdSha256Hash2               0      0.00%     68.43% # Class of executed instruction
system.cpu0.op_class::SimdShaSigma2                 0      0.00%     68.43% # Class of executed instruction
system.cpu0.op_class::SimdShaSigma3                 0      0.00%     68.43% # Class of executed instruction
system.cpu0.op_class::SimdPredAlu                   0      0.00%     68.43% # Class of executed instruction
system.cpu0.op_class::MemRead                11113000     21.05%     89.47% # Class of executed instruction
system.cpu0.op_class::MemWrite                5556913     10.52%    100.00% # Class of executed instruction
system.cpu0.op_class::FloatMemRead                 60      0.00%    100.00% # Class of executed instruction
system.cpu0.op_class::FloatMemWrite               481      0.00%    100.00% # Class of executed instruction
system.cpu0.op_class::IprAccess                     0      0.00%    100.00% # Class of executed instruction
system.cpu0.op_class::InstPrefetch                  0      0.00%    100.00% # Class of executed instruction
system.cpu0.op_class::total                  52797721                       # Class of executed instruction
system.cpu0.workload.numSyscalls                   12                       # Number of system calls
system.cpu1.Branches                          9683413                       # Number of branches fetched
system.cpu1.committedInsts                   43689411                       # Number of instructions committed
system.cpu1.committedOps                     82199734                       # Number of ops (including micro ops) committed
system.cpu1.dtb.rdAccesses                    7495133                       # TLB accesses on read requests
system.cpu1.dtb.rdMisses                         2616                       # TLB misses on read requests
system.cpu1.dtb.wrAccesses                    4440458                       # TLB accesses on write requests
system.cpu1.dtb.wrMisses                          133                       # TLB misses on write requests
system.cpu1.idle_fraction                    0.161919                       # Percentage of idle cycles
system.cpu1.itb.rdAccesses                          0                       # TLB accesses on read requests
system.cpu1.itb.rdMisses                            0                       # TLB misses on read requests
system.cpu1.itb.wrAccesses                   53233776                       # TLB accesses on write requests
system.cpu1.itb.wrMisses                          298                       # TLB misses on write requests
system.cpu1.not_idle_fraction                0.838081                       # Percentage of non-idle cycles
system.cpu1.numCycles                       170284462                       # number of cpu cycles simulated
system.cpu1.numWorkItemsCompleted                   0                       # number of work items this cpu completed
system.cpu1.numWorkItemsStarted                     0                       # number of work items this cpu started
system.cpu1.num_busy_cycles              142712189.609104                       # Number of busy cycles
system.cpu1.num_cc_register_reads            39103074                       # number of times the CC registers were read
system.cpu1.num_cc_register_writes           25347862                       # number of times the CC registers were written
system.cpu1.num_conditional_control_insts      5333084                       # number of instructions that are conditional controls
system.cpu1.num_fp_alu_accesses                271050                       # Number of float alu accesses
system.cpu1.num_fp_insts                       271050                       # number of float instructions
system.cpu1.num_fp_register_reads              424040                       # number of times the floating registers were read
system.cpu1.num_fp_register_writes             222887                       # number of times the floating registers were written
system.cpu1.num_func_calls                    2621941                       # number of times a function call or return occured
system.cpu1.num_idle_cycles              27572272.390896                       # Number of idle cycles
system.cpu1.num_int_alu_accesses             81612091                       # Number of integer alu accesses
system.cpu1.num_int_insts                    81612091                       # number of integer instructions
system.cpu1.num_int_register_reads          159106725                       # number of times the integer registers were read
system.cpu1.num_int_register_writes          67453952                       # number of times the integer registers were written
system.cpu1.num_load_insts                    7491668                       # Number of load instructions
system.cpu1.num_mem_refs                     11931835                       # number of memory refs
system.cpu1.num_store_insts                   4440167                       # Number of store instructions
system.cpu1.num_vec_alu_accesses                    0                       # Number of vector alu accesses
system.cpu1.num_vec_insts                           0                       # number of vector instructions
system.cpu1.num_vec_register_reads                  0                       # number of times the vector registers were read
system.cpu1.num_vec_register_writes                 0                       # number of times the vector registers were written
system.cpu1.op_class::No_OpClass               409288      0.50%      0.50% # Class of executed instruction
system.cpu1.op_class::IntAlu                 69661368     84.75%     85.24% # Class of executed instruction
system.cpu1.op_class::IntMult                     137      0.00%     85.24% # Class of executed instruction
system.cpu1.op_class::IntDiv                       49      0.00%     85.24% # Class of executed instruction
system.cpu1.op_class::FloatAdd                   7688      0.01%     85.25% # Class of executed instruction
system.cpu1.op_class::FloatCmp                      0      0.00%     85.25% # Class of executed instruction
system.cpu1.op_class::FloatCvt                      0      0.00%     85.25% # Class of executed instruction
system.cpu1.op_class::FloatMult                     0      0.00%     85.25% # Class of executed instruction
system.cpu1.op_class::FloatMultAcc                  0      0.00%     85.25% # Class of executed instruction
system.cpu1.op_class::FloatDiv                      0      0.00%     85.25% # Class of executed instruction
system.cpu1.op_class::FloatMisc                     0      0.00%     85.25% # Class of executed instruction
system.cpu1.op_class::FloatSqrt                     0      0.00%     85.25% # Class of executed instruction
system.cpu1.op_class::SimdAdd                     130      0.00%     85.25% # Class of executed instruction
system.cpu1.op_class::SimdAddAcc                    0      0.00%     85.25% # Class of executed instruction
system.cpu1.op_class::SimdAlu                   81698      0.10%     85.35% # Class of executed instruction
system.cpu1.op_class::SimdCmp                    1632      0.00%     85.36% # Class of executed instruction
system.cpu1.op_class::SimdCvt                   40230      0.05%     85.40% # Class of executed instruction
system.cpu1.op_class::SimdMisc                  65642      0.08%     85.48% # Class of executed instruction
system.cpu1.op_class::SimdMult                      0      0.00%     85.48% # Class of executed instruction
system.cpu1.op_class::SimdMultAcc                   0      0.00%     85.48% # Class of executed instruction
system.cpu1.op_class::SimdShift                    12      0.00%     85.48% # Class of executed instruction
system.cpu1.op_class::SimdShiftAcc                  0      0.00%     85.48% # Class of executed instruction
system.cpu1.op_class::SimdDiv                       0      0.00%     85.48% # Class of executed instruction
system.cpu1.op_class::SimdSqrt                      0      0.00%     85.48% # Class of executed instruction
system.cpu1.op_class::SimdFloatAdd                  0      0.00%     85.48% # Class of executed instruction
system.cpu1.op_class::SimdFloatAlu                  0      0.00%     85.48% # Class of executed instruction
system.cpu1.op_class::SimdFloatCmp                  0      0.00%     85.48% # Class of executed instruction
system.cpu1.op_class::SimdFloatCvt                  0      0.00%     85.48% # Class of executed instruction
system.cpu1.op_class::SimdFloatDiv                 25      0.00%     85.48% # Class of executed instruction
system.cpu1.op_class::SimdFloatMisc                 0      0.00%     85.48% # Class of executed instruction
system.cpu1.op_class::SimdFloatMult                 0      0.00%     85.48% # Class of executed instruction
system.cpu1.op_class::SimdFloatMultAcc              0      0.00%     85.48% # Class of executed instruction
system.cpu1.op_class::SimdFloatSqrt                 0      0.00%     85.48% # Class of executed instruction
system.cpu1.op_class::SimdReduceAdd                 0      0.00%     85.48% # Class of executed instruction
system.cpu1.op_class::SimdReduceAlu                 0      0.00%     85.48% # Class of executed instruction
system.cpu1.op_class::SimdReduceCmp                 0      0.00%     85.48% # Class of executed instruction
system.cpu1.op_class::SimdFloatReduceAdd            0      0.00%     85.48% # Class of executed instruction
system.cpu1.op_class::SimdFloatReduceCmp            0      0.00%     85.48% # Class of executed instruction
system.cpu1.op_class::SimdAes                       0      0.00%     85.48% # Class of executed instruction
system.cpu1.op_class::SimdAesMix                    0      0.00%     85.48% # Class of executed instruction
system.cpu1.op_class::SimdSha1Hash                  0      0.00%     85.48% # Class of executed instruction
system.cpu1.op_class::SimdSha1Hash2                 0      0.00%     85.48% # Class of executed instruction
system.cpu1.op_class::SimdSha256Hash                0      0.00%     85.48% # Class of executed instruction
system.cpu1.op_class::SimdSha256Hash2               0      0.00%     85.48% # Class of executed instruction
system.cpu1.op_class::SimdShaSigma2                 0      0.00%     85.48% # Class of executed instruction
system.cpu1.op_class::SimdShaSigma3                 0      0.00%     85.48% # Class of executed instruction
system.cpu1.op_class::SimdPredAlu                   0      0.00%     85.48% # Class of executed instruction
system.cpu1.op_class::MemRead                 7447027      9.06%     94.54% # Class of executed instruction
system.cpu1.op_class::MemWrite                4424074      5.38%     99.93% # Class of executed instruction
system.cpu1.op_class::FloatMemRead              44641      0.05%     99.98% # Class of executed instruction
system.cpu1.op_class::FloatMemWrite             16093      0.02%    100.00% # Class of executed instruction
system.cpu1.op_class::IprAccess                     0      0.00%    100.00% # Class of executed instruction
system.cpu1.op_class::InstPrefetch                  0      0.00%    100.00% # Class of executed instruction
system.cpu1.op_class::total                  82199734                       # Class of executed instruction
system.cpu1.workload.numSyscalls                   21                       # Number of system calls
system.membus.snoop_filter.hit_multi_requests            0                       # Number of requests hitting in the snoop filter with multiple (>1) holders of the requested data.
system.membus.snoop_filter.hit_multi_snoops            0                       # Number of snoops hitting in the snoop filter with multiple (>1) holders of the requested data.
system.membus.snoop_filter.hit_single_requests       113309                       # Number of requests hitting in the snoop filter with a single holder of the requested data.
system.membus.snoop_filter.hit_single_snoops            0                       # Number of snoops hitting in the snoop filter with a single holder of the requested data.
system.membus.snoop_filter.tot_requests        481948                       # Total number of requests made to the snoop filter.
system.membus.snoop_filter.tot_snoops               0                       # Total number of snoops made to the snoop filter.
system.tol2bus.snoop_filter.hit_multi_requests            0                       # Number of requests hitting in the snoop filter with multiple (>1) holders of the requested data.
system.tol2bus.snoop_filter.hit_multi_snoops            0                       # Number of snoops hitting in the snoop filter with multiple (>1) holders of the requested data.
system.tol2bus.snoop_filter.hit_single_requests      1468538                       # Number of requests hitting in the snoop filter with a single holder of the requested data.
system.tol2bus.snoop_filter.hit_single_snoops          691                       # Number of snoops hitting in the snoop filter with a single holder of the requested data.
system.tol2bus.snoop_filter.tot_requests      2938035                       # Total number of requests made to the snoop filter.
system.tol2bus.snoop_filter.tot_snoops            691                       # Total number of snoops made to the snoop filter.
system.membus.pwrStateResidencyTicks::UNDEFINED  67660189083                       # Cumulative time (in ticks) in various power states
system.membus.trans_dist::ReadResp             361977                       # Transaction distribution
system.membus.trans_dist::WritebackDirty         3157                       # Transaction distribution
system.membus.trans_dist::CleanEvict           110152                       # Transaction distribution
system.membus.trans_dist::ReadExReq              6662                       # Transaction distribution
system.membus.trans_dist::ReadExResp             6662                       # Transaction distribution
system.membus.trans_dist::ReadSharedReq        361977                       # Transaction distribution
system.membus.pkt_count_system.l2.mem_side::system.mem_ctrls.port       850587                       # Packet count per connected master and slave (bytes)
system.membus.pkt_count_system.l2.mem_side::total       850587                       # Packet count per connected master and slave (bytes)
system.membus.pkt_count::total                 850587                       # Packet count per connected master and slave (bytes)
system.membus.pkt_size_system.l2.mem_side::system.mem_ctrls.port     23794944                       # Cumulative packet size per connected master and slave (bytes)
system.membus.pkt_size_system.l2.mem_side::total     23794944                       # Cumulative packet size per connected master and slave (bytes)
system.membus.pkt_size::total                23794944                       # Cumulative packet size per connected master and slave (bytes)
system.membus.snoops                                0                       # Total snoops (count)
system.membus.snoopTraffic                          0                       # Total snoop traffic (bytes)
system.membus.snoop_fanout::samples            368639                       # Request fanout histogram
system.membus.snoop_fanout::mean                    0                       # Request fanout histogram
system.membus.snoop_fanout::stdev                   0                       # Request fanout histogram
system.membus.snoop_fanout::underflows              0      0.00%      0.00% # Request fanout histogram
system.membus.snoop_fanout::0                  368639    100.00%    100.00% # Request fanout histogram
system.membus.snoop_fanout::1                       0      0.00%    100.00% # Request fanout histogram
system.membus.snoop_fanout::overflows               0      0.00%    100.00% # Request fanout histogram
system.membus.snoop_fanout::min_value               0                       # Request fanout histogram
system.membus.snoop_fanout::max_value               0                       # Request fanout histogram
system.membus.snoop_fanout::total              368639                       # Request fanout histogram
system.membus.reqLayer4.occupancy           699988400                       # Layer occupancy (ticks)
system.membus.reqLayer4.utilization               1.0                       # Layer utilization (%)
system.membus.respLayer1.occupancy         1972293607                       # Layer occupancy (ticks)
system.membus.respLayer1.utilization              2.9                       # Layer utilization (%)
system.voltage_domain.voltage                       1                       # Voltage in Volts
system.clk_domain.clock                          1000                       # Clock period in ticks
system.cpu0.numPwrStateTransitions                  1                       # Number of power state transitions
system.cpu0.pwrStateResidencyTicks::ON    67660189083                       # Cumulative time (in ticks) in various power states
system.cpu0.icache.pwrStateResidencyTicks::UNDEFINED  67660189083                       # Cumulative time (in ticks) in various power states
system.cpu0.icache.demand_hits::.cpu0.inst     38901902                       # number of demand (read+write) hits
system.cpu0.icache.demand_hits::total        38901902                       # number of demand (read+write) hits
system.cpu0.icache.overall_hits::.cpu0.inst     38901902                       # number of overall hits
system.cpu0.icache.overall_hits::total       38901902                       # number of overall hits
system.cpu0.icache.demand_misses::.cpu0.inst          449                       # number of demand (read+write) misses
system.cpu0.icache.demand_misses::total           449                       # number of demand (read+write) misses
system.cpu0.icache.overall_misses::.cpu0.inst          449                       # number of overall misses
system.cpu0.icache.overall_misses::total          449                       # number of overall misses
system.cpu0.icache.demand_miss_latency::.cpu0.inst     38181780                       # number of demand (read+write) miss cycles
system.cpu0.icache.demand_miss_latency::total     38181780                       # number of demand (read+write) miss cycles
system.cpu0.icache.overall_miss_latency::.cpu0.inst     38181780                       # number of overall miss cycles
system.cpu0.icache.overall_miss_latency::total     38181780                       # number of overall miss cycles
system.cpu0.icache.demand_accesses::.cpu0.inst     38902351                       # number of demand (read+write) accesses
system.cpu0.icache.demand_accesses::total     38902351                       # number of demand (read+write) accesses
system.cpu0.icache.overall_accesses::.cpu0.inst     38902351                       # number of overall (read+write) accesses
system.cpu0.icache.overall_accesses::total     38902351                       # number of overall (read+write) accesses
system.cpu0.icache.demand_miss_rate::.cpu0.inst     0.000012                       # miss rate for demand accesses
system.cpu0.icache.demand_miss_rate::total     0.000012                       # miss rate for demand accesses
system.cpu0.icache.overall_miss_rate::.cpu0.inst     0.000012                       # miss rate for overall accesses
system.cpu0.icache.overall_miss_rate::total     0.000012                       # miss rate for overall accesses
system.cpu0.icache.demand_avg_miss_latency::.cpu0.inst 85037.371938                       # average overall miss latency
system.cpu0.icache.demand_avg_miss_latency::total 85037.371938                       # average overall miss latency
system.cpu0.icache.overall_avg_miss_latency::.cpu0.inst 85037.371938                       # average overall miss latency
system.cpu0.icache.overall_avg_miss_latency::total 85037.371938                       # average overall miss latency
system.cpu0.icache.blocked_cycles::no_mshrs            0                       # number of cycles access was blocked
system.cpu0.icache.blocked_cycles::no_targets            0                       # number of cycles access was blocked
system.cpu0.icache.blocked::no_mshrs                0                       # number of cycles access was blocked
system.cpu0.icache.blocked::no_targets              0                       # number of cycles access was blocked
system.cpu0.icache.avg_blocked_cycles::no_mshrs          nan                       # average number of cycles each access was blocked
system.cpu0.icache.avg_blocked_cycles::no_targets          nan                       # average number of cycles each access was blocked
system.cpu0.icache.writebacks::.writebacks           18                       # number of writebacks
system.cpu0.icache.writebacks::total               18                       # number of writebacks
system.cpu0.icache.demand_mshr_misses::.cpu0.inst          449                       # number of demand (read+write) MSHR misses
system.cpu0.icache.demand_mshr_misses::total          449                       # number of demand (read+write) MSHR misses
system.cpu0.icache.overall_mshr_misses::.cpu0.inst          449                       # number of overall MSHR misses
system.cpu0.icache.overall_mshr_misses::total          449                       # number of overall MSHR misses
system.cpu0.icache.demand_mshr_miss_latency::.cpu0.inst     37882746                       # number of demand (read+write) MSHR miss cycles
system.cpu0.icache.demand_mshr_miss_latency::total     37882746                       # number of demand (read+write) MSHR miss cycles
system.cpu0.icache.overall_mshr_miss_latency::.cpu0.inst     37882746                       # number of overall MSHR miss cycles
system.cpu0.icache.overall_mshr_miss_latency::total     37882746                       # number of overall MSHR miss cycles
system.cpu0.icache.demand_mshr_miss_rate::.cpu0.inst     0.000012                       # mshr miss rate for demand accesses
system.cpu0.icache.demand_mshr_miss_rate::total     0.000012                       # mshr miss rate for demand accesses
system.cpu0.icache.overall_mshr_miss_rate::.cpu0.inst     0.000012                       # mshr miss rate for overall accesses
system.cpu0.icache.overall_mshr_miss_rate::total     0.000012                       # mshr miss rate for overall accesses
system.cpu0.icache.demand_avg_mshr_miss_latency::.cpu0.inst 84371.371938                       # average overall mshr miss latency
system.cpu0.icache.demand_avg_mshr_miss_latency::total 84371.371938                       # average overall mshr miss latency
system.cpu0.icache.overall_avg_mshr_miss_latency::.cpu0.inst 84371.371938                       # average overall mshr miss latency
system.cpu0.icache.overall_avg_mshr_miss_latency::total 84371.371938                       # average overall mshr miss latency
system.cpu0.icache.replacements                    18                       # number of replacements
system.cpu0.icache.ReadReq_hits::.cpu0.inst     38901902                       # number of ReadReq hits
system.cpu0.icache.ReadReq_hits::total       38901902                       # number of ReadReq hits
system.cpu0.icache.ReadReq_misses::.cpu0.inst          449                       # number of ReadReq misses
system.cpu0.icache.ReadReq_misses::total          449                       # number of ReadReq misses
system.cpu0.icache.ReadReq_miss_latency::.cpu0.inst     38181780                       # number of ReadReq miss cycles
system.cpu0.icache.ReadReq_miss_latency::total     38181780                       # number of ReadReq miss cycles
system.cpu0.icache.ReadReq_accesses::.cpu0.inst     38902351                       # number of ReadReq accesses(hits+misses)
system.cpu0.icache.ReadReq_accesses::total     38902351                       # number of ReadReq accesses(hits+misses)
system.cpu0.icache.ReadReq_miss_rate::.cpu0.inst     0.000012                       # miss rate for ReadReq accesses
system.cpu0.icache.ReadReq_miss_rate::total     0.000012                       # miss rate for ReadReq accesses
system.cpu0.icache.ReadReq_avg_miss_latency::.cpu0.inst 85037.371938                       # average ReadReq miss latency
system.cpu0.icache.ReadReq_avg_miss_latency::total 85037.371938                       # average ReadReq miss latency
system.cpu0.icache.ReadReq_mshr_misses::.cpu0.inst          449                       # number of ReadReq MSHR misses
system.cpu0.icache.ReadReq_mshr_misses::total          449                       # number of ReadReq MSHR misses
system.cpu0.icache.ReadReq_mshr_miss_latency::.cpu0.inst     37882746                       # number of ReadReq MSHR miss cycles
system.cpu0.icache.ReadReq_mshr_miss_latency::total     37882746                       # number of ReadReq MSHR miss cycles
system.cpu0.icache.ReadReq_mshr_miss_rate::.cpu0.inst     0.000012                       # mshr miss rate for ReadReq accesses
system.cpu0.icache.ReadReq_mshr_miss_rate::total     0.000012                       # mshr miss rate for ReadReq accesses
system.cpu0.icache.ReadReq_avg_mshr_miss_latency::.cpu0.inst 84371.371938                       # average ReadReq mshr miss latency
system.cpu0.icache.ReadReq_avg_mshr_miss_latency::total 84371.371938                       # average ReadReq mshr miss latency
system.cpu0.icache.tags.pwrStateResidencyTicks::UNDEFINED  67660189083                       # Cumulative time (in ticks) in various power states
system.cpu0.icache.tags.tagsinuse          347.854763                       # Cycle average of tags in use
system.cpu0.icache.tags.total_refs           38902351                       # Total number of references to valid blocks.
system.cpu0.icache.tags.sampled_refs              449                       # Sample count of references to valid blocks.
system.cpu0.icache.tags.avg_refs         86642.207127                       # Average number of references to valid blocks.
system.cpu0.icache.tags.warmup_cycle            83250                       # Cycle when the warmup percentage was hit.
system.cpu0.icache.tags.occ_blocks::.cpu0.inst   347.854763                       # Average occupied blocks per requestor
system.cpu0.icache.tags.occ_percent::.cpu0.inst     0.679404                       # Average percentage of cache occupancy
system.cpu0.icache.tags.occ_percent::total     0.679404                       # Average percentage of cache occupancy
system.cpu0.icache.tags.occ_task_id_blocks::1024          431                       # Occupied blocks per task id
system.cpu0.icache.tags.age_task_id_blocks_1024::0           65                       # Occupied blocks per task id
system.cpu0.icache.tags.age_task_id_blocks_1024::1           31                       # Occupied blocks per task id
system.cpu0.icache.tags.age_task_id_blocks_1024::4          335                       # Occupied blocks per task id
system.cpu0.icache.tags.occ_task_id_percent::1024     0.841797                       # Percentage of cache occupancy per task id
system.cpu0.icache.tags.tag_accesses        311219257                       # Number of tag accesses
system.cpu0.icache.tags.data_accesses       311219257                       # Number of data accesses
system.cpu0.icache.tags.repl_invalid                0                       # Number of initial replacements
system.cpu0.icache.tags.repl_valid_tag              0                       # Number of local replacements
system.cpu0.icache.tags.repl_valid_data             0                       # Number of global replacements
system.cpu0.dtb.walker.pwrStateResidencyTicks::UNDEFINED  67660189083                       # Cumulative time (in ticks) in various power states
system.cpu0.interrupts.clk_domain.clock          5328                       # Clock period in ticks
system.cpu0.itb_walker_cache.pwrStateResidencyTicks::UNDEFINED  67660189083                       # Cumulative time (in ticks) in various power states
system.cpu0.itb_walker_cache.blocked_cycles::no_mshrs            0                       # number of cycles access was blocked
system.cpu0.itb_walker_cache.blocked_cycles::no_targets            0                       # number of cycles access was blocked
system.cpu0.itb_walker_cache.blocked::no_mshrs            0                       # number of cycles access was blocked
system.cpu0.itb_walker_cache.blocked::no_targets            0                       # number of cycles access was blocked
system.cpu0.itb_walker_cache.avg_blocked_cycles::no_mshrs          nan                       # average number of cycles each access was blocked
system.cpu0.itb_walker_cache.avg_blocked_cycles::no_targets          nan                       # average number of cycles each access was blocked
system.cpu0.itb_walker_cache.replacements            0                       # number of replacements
system.cpu0.itb_walker_cache.tags.pwrStateResidencyTicks::UNDEFINED  67660189083                       # Cumulative time (in ticks) in various power states
system.cpu0.itb_walker_cache.tags.tagsinuse            0                       # Cycle average of tags in use
system.cpu0.itb_walker_cache.tags.total_refs            0                       # Total number of references to valid blocks.
system.cpu0.itb_walker_cache.tags.sampled_refs            0                       # Sample count of references to valid blocks.
system.cpu0.itb_walker_cache.tags.avg_refs          nan                       # Average number of references to valid blocks.
system.cpu0.itb_walker_cache.tags.warmup_cycle            0                       # Cycle when the warmup percentage was hit.
system.cpu0.itb_walker_cache.tags.tag_accesses            0                       # Number of tag accesses
system.cpu0.itb_walker_cache.tags.data_accesses            0                       # Number of data accesses
system.cpu0.itb_walker_cache.tags.repl_invalid            0                       # Number of initial replacements
system.cpu0.itb_walker_cache.tags.repl_valid_tag            0                       # Number of local replacements
system.cpu0.itb_walker_cache.tags.repl_valid_data            0                       # Number of global replacements
system.cpu0.itb.walker.pwrStateResidencyTicks::UNDEFINED  67660189083                       # Cumulative time (in ticks) in various power states
system.cpu0.dtb_walker_cache.pwrStateResidencyTicks::UNDEFINED  67660189083                       # Cumulative time (in ticks) in various power states
system.cpu0.dtb_walker_cache.blocked_cycles::no_mshrs            0                       # number of cycles access was blocked
system.cpu0.dtb_walker_cache.blocked_cycles::no_targets            0                       # number of cycles access was blocked
system.cpu0.dtb_walker_cache.blocked::no_mshrs            0                       # number of cycles access was blocked
system.cpu0.dtb_walker_cache.blocked::no_targets            0                       # number of cycles access was blocked
system.cpu0.dtb_walker_cache.avg_blocked_cycles::no_mshrs          nan                       # average number of cycles each access was blocked
system.cpu0.dtb_walker_cache.avg_blocked_cycles::no_targets          nan                       # average number of cycles each access was blocked
system.cpu0.dtb_walker_cache.replacements            0                       # number of replacements
system.cpu0.dtb_walker_cache.tags.pwrStateResidencyTicks::UNDEFINED  67660189083                       # Cumulative time (in ticks) in various power states
system.cpu0.dtb_walker_cache.tags.tagsinuse            0                       # Cycle average of tags in use
system.cpu0.dtb_walker_cache.tags.total_refs            0                       # Total number of references to valid blocks.
system.cpu0.dtb_walker_cache.tags.sampled_refs            0                       # Sample count of references to valid blocks.
system.cpu0.dtb_walker_cache.tags.avg_refs          nan                       # Average number of references to valid blocks.
system.cpu0.dtb_walker_cache.tags.warmup_cycle            0                       # Cycle when the warmup percentage was hit.
system.cpu0.dtb_walker_cache.tags.tag_accesses            0                       # Number of tag accesses
system.cpu0.dtb_walker_cache.tags.data_accesses            0                       # Number of data accesses
system.cpu0.dtb_walker_cache.tags.repl_invalid            0                       # Number of initial replacements
system.cpu0.dtb_walker_cache.tags.repl_valid_tag            0                       # Number of local replacements
system.cpu0.dtb_walker_cache.tags.repl_valid_data            0                       # Number of global replacements
system.cpu0.dcache.pwrStateResidencyTicks::UNDEFINED  67660189083                       # Cumulative time (in ticks) in various power states
system.cpu0.dcache.demand_hits::.cpu0.data     16322542                       # number of demand (read+write) hits
system.cpu0.dcache.demand_hits::total        16322542                       # number of demand (read+write) hits
system.cpu0.dcache.overall_hits::.cpu0.data     16322542                       # number of overall hits
system.cpu0.dcache.overall_hits::total       16322542                       # number of overall hits
system.cpu0.dcache.demand_misses::.cpu0.data       347916                       # number of demand (read+write) misses
system.cpu0.dcache.demand_misses::total        347916                       # number of demand (read+write) misses
system.cpu0.dcache.overall_misses::.cpu0.data       347916                       # number of overall misses
system.cpu0.dcache.overall_misses::total       347916                       # number of overall misses
system.cpu0.dcache.demand_miss_latency::.cpu0.data  30842550909                       # number of demand (read+write) miss cycles
system.cpu0.dcache.demand_miss_latency::total  30842550909                       # number of demand (read+write) miss cycles
system.cpu0.dcache.overall_miss_latency::.cpu0.data  30842550909                       # number of overall miss cycles
system.cpu0.dcache.overall_miss_latency::total  30842550909                       # number of overall miss cycles
system.cpu0.dcache.demand_accesses::.cpu0.data     16670458                       # number of demand (read+write) accesses
system.cpu0.dcache.demand_accesses::total     16670458                       # number of demand (read+write) accesses
system.cpu0.dcache.overall_accesses::.cpu0.data     16670458                       # number of overall (read+write) accesses
system.cpu0.dcache.overall_accesses::total     16670458                       # number of overall (read+write) accesses
system.cpu0.dcache.demand_miss_rate::.cpu0.data     0.020870                       # miss rate for demand accesses
system.cpu0.dcache.demand_miss_rate::total     0.020870                       # miss rate for demand accesses
system.cpu0.dcache.overall_miss_rate::.cpu0.data     0.020870                       # miss rate for overall accesses
system.cpu0.dcache.overall_miss_rate::total     0.020870                       # miss rate for overall accesses
system.cpu0.dcache.demand_avg_miss_latency::.cpu0.data 88649.417989                       # average overall miss latency
system.cpu0.dcache.demand_avg_miss_latency::total 88649.417989                       # average overall miss latency
system.cpu0.dcache.overall_avg_miss_latency::.cpu0.data 88649.417989                       # average overall miss latency
system.cpu0.dcache.overall_avg_miss_latency::total 88649.417989                       # average overall miss latency
system.cpu0.dcache.blocked_cycles::no_mshrs            0                       # number of cycles access was blocked
system.cpu0.dcache.blocked_cycles::no_targets            0                       # number of cycles access was blocked
system.cpu0.dcache.blocked::no_mshrs                0                       # number of cycles access was blocked
system.cpu0.dcache.blocked::no_targets              0                       # number of cycles access was blocked
system.cpu0.dcache.avg_blocked_cycles::no_mshrs          nan                       # average number of cycles each access was blocked
system.cpu0.dcache.avg_blocked_cycles::no_targets          nan                       # average number of cycles each access was blocked
system.cpu0.dcache.writebacks::.writebacks          515                       # number of writebacks
system.cpu0.dcache.writebacks::total              515                       # number of writebacks
system.cpu0.dcache.demand_mshr_misses::.cpu0.data       347916                       # number of demand (read+write) MSHR misses
system.cpu0.dcache.demand_mshr_misses::total       347916                       # number of demand (read+write) MSHR misses
system.cpu0.dcache.overall_mshr_misses::.cpu0.data       347916                       # number of overall MSHR misses
system.cpu0.dcache.overall_mshr_misses::total       347916                       # number of overall MSHR misses
system.cpu0.dcache.demand_mshr_miss_latency::.cpu0.data  30610838853                       # number of demand (read+write) MSHR miss cycles
system.cpu0.dcache.demand_mshr_miss_latency::total  30610838853                       # number of demand (read+write) MSHR miss cycles
system.cpu0.dcache.overall_mshr_miss_latency::.cpu0.data  30610838853                       # number of overall MSHR miss cycles
system.cpu0.dcache.overall_mshr_miss_latency::total  30610838853                       # number of overall MSHR miss cycles
system.cpu0.dcache.demand_mshr_miss_rate::.cpu0.data     0.020870                       # mshr miss rate for demand accesses
system.cpu0.dcache.demand_mshr_miss_rate::total     0.020870                       # mshr miss rate for demand accesses
system.cpu0.dcache.overall_mshr_miss_rate::.cpu0.data     0.020870                       # mshr miss rate for overall accesses
system.cpu0.dcache.overall_mshr_miss_rate::total     0.020870                       # mshr miss rate for overall accesses
system.cpu0.dcache.demand_avg_mshr_miss_latency::.cpu0.data 87983.417989                       # average overall mshr miss latency
system.cpu0.dcache.demand_avg_mshr_miss_latency::total 87983.417989                       # average overall mshr miss latency
system.cpu0.dcache.overall_avg_mshr_miss_latency::.cpu0.data 87983.417989                       # average overall mshr miss latency
system.cpu0.dcache.overall_avg_mshr_miss_latency::total 87983.417989                       # average overall mshr miss latency
system.cpu0.dcache.replacements                347908                       # number of replacements
system.cpu0.dcache.ReadReq_hits::.cpu0.data     10765403                       # number of ReadReq hits
system.cpu0.dcache.ReadReq_hits::total       10765403                       # number of ReadReq hits
system.cpu0.dcache.ReadReq_misses::.cpu0.data       347660                       # number of ReadReq misses
system.cpu0.dcache.ReadReq_misses::total       347660                       # number of ReadReq misses
system.cpu0.dcache.ReadReq_miss_latency::.cpu0.data  30830545593                       # number of ReadReq miss cycles
system.cpu0.dcache.ReadReq_miss_latency::total  30830545593                       # number of ReadReq miss cycles
system.cpu0.dcache.ReadReq_accesses::.cpu0.data     11113063                       # number of ReadReq accesses(hits+misses)
system.cpu0.dcache.ReadReq_accesses::total     11113063                       # number of ReadReq accesses(hits+misses)
system.cpu0.dcache.ReadReq_miss_rate::.cpu0.data     0.031284                       # miss rate for ReadReq accesses
system.cpu0.dcache.ReadReq_miss_rate::total     0.031284                       # miss rate for ReadReq accesses
system.cpu0.dcache.ReadReq_avg_miss_latency::.cpu0.data 88680.163358                       # average ReadReq miss latency
system.cpu0.dcache.ReadReq_avg_miss_latency::total 88680.163358                       # average ReadReq miss latency
system.cpu0.dcache.ReadReq_mshr_misses::.cpu0.data       347660                       # number of ReadReq MSHR misses
system.cpu0.dcache.ReadReq_mshr_misses::total       347660                       # number of ReadReq MSHR misses
system.cpu0.dcache.ReadReq_mshr_miss_latency::.cpu0.data  30599004033                       # number of ReadReq MSHR miss cycles
system.cpu0.dcache.ReadReq_mshr_miss_latency::total  30599004033                       # number of ReadReq MSHR miss cycles
system.cpu0.dcache.ReadReq_mshr_miss_rate::.cpu0.data     0.031284                       # mshr miss rate for ReadReq accesses
system.cpu0.dcache.ReadReq_mshr_miss_rate::total     0.031284                       # mshr miss rate for ReadReq accesses
system.cpu0.dcache.ReadReq_avg_mshr_miss_latency::.cpu0.data 88014.163358                       # average ReadReq mshr miss latency
system.cpu0.dcache.ReadReq_avg_mshr_miss_latency::total 88014.163358                       # average ReadReq mshr miss latency
system.cpu0.dcache.WriteReq_hits::.cpu0.data      5557139                       # number of WriteReq hits
system.cpu0.dcache.WriteReq_hits::total       5557139                       # number of WriteReq hits
system.cpu0.dcache.WriteReq_misses::.cpu0.data          256                       # number of WriteReq misses
system.cpu0.dcache.WriteReq_misses::total          256                       # number of WriteReq misses
system.cpu0.dcache.WriteReq_miss_latency::.cpu0.data     12005316                       # number of WriteReq miss cycles
system.cpu0.dcache.WriteReq_miss_latency::total     12005316                       # number of WriteReq miss cycles
system.cpu0.dcache.WriteReq_accesses::.cpu0.data      5557395                       # number of WriteReq accesses(hits+misses)
system.cpu0.dcache.WriteReq_accesses::total      5557395                       # number of WriteReq accesses(hits+misses)
system.cpu0.dcache.WriteReq_miss_rate::.cpu0.data     0.000046                       # miss rate for WriteReq accesses
system.cpu0.dcache.WriteReq_miss_rate::total     0.000046                       # miss rate for WriteReq accesses
system.cpu0.dcache.WriteReq_avg_miss_latency::.cpu0.data 46895.765625                       # average WriteReq miss latency
system.cpu0.dcache.WriteReq_avg_miss_latency::total 46895.765625                       # average WriteReq miss latency
system.cpu0.dcache.WriteReq_mshr_misses::.cpu0.data          256                       # number of WriteReq MSHR misses
system.cpu0.dcache.WriteReq_mshr_misses::total          256                       # number of WriteReq MSHR misses
system.cpu0.dcache.WriteReq_mshr_miss_latency::.cpu0.data     11834820                       # number of WriteReq MSHR miss cycles
system.cpu0.dcache.WriteReq_mshr_miss_latency::total     11834820                       # number of WriteReq MSHR miss cycles
system.cpu0.dcache.WriteReq_mshr_miss_rate::.cpu0.data     0.000046                       # mshr miss rate for WriteReq accesses
system.cpu0.dcache.WriteReq_mshr_miss_rate::total     0.000046                       # mshr miss rate for WriteReq accesses
system.cpu0.dcache.WriteReq_avg_mshr_miss_latency::.cpu0.data 46229.765625                       # average WriteReq mshr miss latency
system.cpu0.dcache.WriteReq_avg_mshr_miss_latency::total 46229.765625                       # average WriteReq mshr miss latency
system.cpu0.dcache.tags.pwrStateResidencyTicks::UNDEFINED  67660189083                       # Cumulative time (in ticks) in various power states
system.cpu0.dcache.tags.tagsinuse            7.999914                       # Cycle average of tags in use
system.cpu0.dcache.tags.total_refs           16670458                       # Total number of references to valid blocks.
system.cpu0.dcache.tags.sampled_refs           347916                       # Sample count of references to valid blocks.
system.cpu0.dcache.tags.avg_refs            47.915181                       # Average number of references to valid blocks.
system.cpu0.dcache.tags.warmup_cycle           166167                       # Cycle when the warmup percentage was hit.
system.cpu0.dcache.tags.occ_blocks::.cpu0.data     7.999914                       # Average occupied blocks per requestor
system.cpu0.dcache.tags.occ_percent::.cpu0.data     0.999989                       # Average percentage of cache occupancy
system.cpu0.dcache.tags.occ_percent::total     0.999989                       # Average percentage of cache occupancy
system.cpu0.dcache.tags.occ_task_id_blocks::1024            8                       # Occupied blocks per task id
system.cpu0.dcache.tags.age_task_id_blocks_1024::0            8                       # Occupied blocks per task id
system.cpu0.dcache.tags.occ_task_id_percent::1024            1                       # Percentage of cache occupancy per task id
system.cpu0.dcache.tags.tag_accesses        133711580                       # Number of tag accesses
system.cpu0.dcache.tags.data_accesses       133711580                       # Number of data accesses
system.cpu0.dcache.tags.repl_invalid                0                       # Number of initial replacements
system.cpu0.dcache.tags.repl_valid_tag              0                       # Number of local replacements
system.cpu0.dcache.tags.repl_valid_data             0                       # Number of global replacements
system.cpu1.numPwrStateTransitions                  1                       # Number of power state transitions
system.cpu1.pwrStateResidencyTicks::ON    67660189083                       # Cumulative time (in ticks) in various power states
system.cpu1.icache.pwrStateResidencyTicks::UNDEFINED  67660189083                       # Cumulative time (in ticks) in various power states
system.cpu1.icache.demand_hits::.cpu1.inst     53230536                       # number of demand (read+write) hits
system.cpu1.icache.demand_hits::total        53230536                       # number of demand (read+write) hits
system.cpu1.icache.overall_hits::.cpu1.inst     53230536                       # number of overall hits
system.cpu1.icache.overall_hits::total       53230536                       # number of overall hits
system.cpu1.icache.demand_misses::.cpu1.inst         3240                       # number of demand (read+write) misses
system.cpu1.icache.demand_misses::total          3240                       # number of demand (read+write) misses
system.cpu1.icache.overall_misses::.cpu1.inst         3240                       # number of overall misses
system.cpu1.icache.overall_misses::total         3240                       # number of overall misses
system.cpu1.icache.demand_miss_latency::.cpu1.inst    254583495                       # number of demand (read+write) miss cycles
system.cpu1.icache.demand_miss_latency::total    254583495                       # number of demand (read+write) miss cycles
system.cpu1.icache.overall_miss_latency::.cpu1.inst    254583495                       # number of overall miss cycles
system.cpu1.icache.overall_miss_latency::total    254583495                       # number of overall miss cycles
system.cpu1.icache.demand_accesses::.cpu1.inst     53233776                       # number of demand (read+write) accesses
system.cpu1.icache.demand_accesses::total     53233776                       # number of demand (read+write) accesses
system.cpu1.icache.overall_accesses::.cpu1.inst     53233776                       # number of overall (read+write) accesses
system.cpu1.icache.overall_accesses::total     53233776                       # number of overall (read+write) accesses
system.cpu1.icache.demand_miss_rate::.cpu1.inst     0.000061                       # miss rate for demand accesses
system.cpu1.icache.demand_miss_rate::total     0.000061                       # miss rate for demand accesses
system.cpu1.icache.overall_miss_rate::.cpu1.inst     0.000061                       # miss rate for overall accesses
system.cpu1.icache.overall_miss_rate::total     0.000061                       # miss rate for overall accesses
system.cpu1.icache.demand_avg_miss_latency::.cpu1.inst 78575.152778                       # average overall miss latency
system.cpu1.icache.demand_avg_miss_latency::total 78575.152778                       # average overall miss latency
system.cpu1.icache.overall_avg_miss_latency::.cpu1.inst 78575.152778                       # average overall miss latency
system.cpu1.icache.overall_avg_miss_latency::total 78575.152778                       # average overall miss latency
system.cpu1.icache.blocked_cycles::no_mshrs            0                       # number of cycles access was blocked
system.cpu1.icache.blocked_cycles::no_targets            0                       # number of cycles access was blocked
system.cpu1.icache.blocked::no_mshrs                0                       # number of cycles access was blocked
system.cpu1.icache.blocked::no_targets              0                       # number of cycles access was blocked
system.cpu1.icache.avg_blocked_cycles::no_mshrs          nan                       # average number of cycles each access was blocked
system.cpu1.icache.avg_blocked_cycles::no_targets          nan                       # average number of cycles each access was blocked
system.cpu1.icache.writebacks::.writebacks         2728                       # number of writebacks
system.cpu1.icache.writebacks::total             2728                       # number of writebacks
system.cpu1.icache.demand_mshr_misses::.cpu1.inst         3240                       # number of demand (read+write) MSHR misses
system.cpu1.icache.demand_mshr_misses::total         3240                       # number of demand (read+write) MSHR misses
system.cpu1.icache.overall_mshr_misses::.cpu1.inst         3240                       # number of overall MSHR misses
system.cpu1.icache.overall_mshr_misses::total         3240                       # number of overall MSHR misses
system.cpu1.icache.demand_mshr_miss_latency::.cpu1.inst    252425655                       # number of demand (read+write) MSHR miss cycles
system.cpu1.icache.demand_mshr_miss_latency::total    252425655                       # number of demand (read+write) MSHR miss cycles
system.cpu1.icache.overall_mshr_miss_latency::.cpu1.inst    252425655                       # number of overall MSHR miss cycles
system.cpu1.icache.overall_mshr_miss_latency::total    252425655                       # number of overall MSHR miss cycles
system.cpu1.icache.demand_mshr_miss_rate::.cpu1.inst     0.000061                       # mshr miss rate for demand accesses
system.cpu1.icache.demand_mshr_miss_rate::total     0.000061                       # mshr miss rate for demand accesses
system.cpu1.icache.overall_mshr_miss_rate::.cpu1.inst     0.000061                       # mshr miss rate for overall accesses
system.cpu1.icache.overall_mshr_miss_rate::total     0.000061                       # mshr miss rate for overall accesses
system.cpu1.icache.demand_avg_mshr_miss_latency::.cpu1.inst 77909.152778                       # average overall mshr miss latency
system.cpu1.icache.demand_avg_mshr_miss_latency::total 77909.152778                       # average overall mshr miss latency
system.cpu1.icache.overall_avg_mshr_miss_latency::.cpu1.inst 77909.152778                       # average overall mshr miss latency
system.cpu1.icache.overall_avg_mshr_miss_latency::total 77909.152778                       # average overall mshr miss latency
system.cpu1.icache.replacements                  2728                       # number of replacements
system.cpu1.icache.ReadReq_hits::.cpu1.inst     53230536                       # number of ReadReq hits
system.cpu1.icache.ReadReq_hits::total       53230536                       # number of ReadReq hits
system.cpu1.icache.ReadReq_misses::.cpu1.inst         3240                       # number of ReadReq misses
system.cpu1.icache.ReadReq_misses::total         3240                       # number of ReadReq misses
system.cpu1.icache.ReadReq_miss_latency::.cpu1.inst    254583495                       # number of ReadReq miss cycles
system.cpu1.icache.ReadReq_miss_latency::total    254583495                       # number of ReadReq miss cycles
system.cpu1.icache.ReadReq_accesses::.cpu1.inst     53233776                       # number of ReadReq accesses(hits+misses)
system.cpu1.icache.ReadReq_accesses::total     53233776                       # number of ReadReq accesses(hits+misses)
system.cpu1.icache.ReadReq_miss_rate::.cpu1.inst     0.000061                       # miss rate for ReadReq accesses
system.cpu1.icache.ReadReq_miss_rate::total     0.000061                       # miss rate for ReadReq accesses
system.cpu1.icache.ReadReq_avg_miss_latency::.cpu1.inst 78575.152778                       # average ReadReq miss latency
system.cpu1.icache.ReadReq_avg_miss_latency::total 78575.152778                       # average ReadReq miss latency
system.cpu1.icache.ReadReq_mshr_misses::.cpu1.inst         3240                       # number of ReadReq MSHR misses
system.cpu1.icache.ReadReq_mshr_misses::total         3240                       # number of ReadReq MSHR misses
system.cpu1.icache.ReadReq_mshr_miss_latency::.cpu1.inst    252425655                       # number of ReadReq MSHR miss cycles
system.cpu1.icache.ReadReq_mshr_miss_latency::total    252425655                       # number of ReadReq MSHR miss cycles
system.cpu1.icache.ReadReq_mshr_miss_rate::.cpu1.inst     0.000061                       # mshr miss rate for ReadReq accesses
system.cpu1.icache.ReadReq_mshr_miss_rate::total     0.000061                       # mshr miss rate for ReadReq accesses
system.cpu1.icache.ReadReq_avg_mshr_miss_latency::.cpu1.inst 77909.152778                       # average ReadReq mshr miss latency
system.cpu1.icache.ReadReq_avg_mshr_miss_latency::total 77909.152778                       # average ReadReq mshr miss latency
system.cpu1.icache.tags.pwrStateResidencyTicks::UNDEFINED  67660189083                       # Cumulative time (in ticks) in various power states
system.cpu1.icache.tags.tagsinuse          511.584294                       # Cycle average of tags in use
system.cpu1.icache.tags.total_refs           53233776                       # Total number of references to valid blocks.
system.cpu1.icache.tags.sampled_refs             3240                       # Sample count of references to valid blocks.
system.cpu1.icache.tags.avg_refs         16430.177778                       # Average number of references to valid blocks.
system.cpu1.icache.tags.warmup_cycle            88245                       # Cycle when the warmup percentage was hit.
system.cpu1.icache.tags.occ_blocks::.cpu1.inst   511.584294                       # Average occupied blocks per requestor
system.cpu1.icache.tags.occ_percent::.cpu1.inst     0.999188                       # Average percentage of cache occupancy
system.cpu1.icache.tags.occ_percent::total     0.999188                       # Average percentage of cache occupancy
system.cpu1.icache.tags.occ_task_id_blocks::1024          512                       # Occupied blocks per task id
system.cpu1.icache.tags.age_task_id_blocks_1024::4          512                       # Occupied blocks per task id
system.cpu1.icache.tags.occ_task_id_percent::1024            1                       # Percentage of cache occupancy per task id
system.cpu1.icache.tags.tag_accesses        425873448                       # Number of tag accesses
system.cpu1.icache.tags.data_accesses       425873448                       # Number of data accesses
system.cpu1.icache.tags.repl_invalid                0                       # Number of initial replacements
system.cpu1.icache.tags.repl_valid_tag              0                       # Number of local replacements
system.cpu1.icache.tags.repl_valid_data             0                       # Number of global replacements
system.cpu1.dtb.walker.pwrStateResidencyTicks::UNDEFINED  67660189083                       # Cumulative time (in ticks) in various power states
system.cpu1.interrupts.clk_domain.clock          5328                       # Clock period in ticks
system.cpu1.itb_walker_cache.pwrStateResidencyTicks::UNDEFINED  67660189083                       # Cumulative time (in ticks) in various power states
system.cpu1.itb_walker_cache.blocked_cycles::no_mshrs            0                       # number of cycles access was blocked
system.cpu1.itb_walker_cache.blocked_cycles::no_targets            0                       # number of cycles access was blocked
system.cpu1.itb_walker_cache.blocked::no_mshrs            0                       # number of cycles access was blocked
system.cpu1.itb_walker_cache.blocked::no_targets            0                       # number of cycles access was blocked
system.cpu1.itb_walker_cache.avg_blocked_cycles::no_mshrs          nan                       # average number of cycles each access was blocked
system.cpu1.itb_walker_cache.avg_blocked_cycles::no_targets          nan                       # average number of cycles each access was blocked
system.cpu1.itb_walker_cache.replacements            0                       # number of replacements
system.cpu1.itb_walker_cache.tags.pwrStateResidencyTicks::UNDEFINED  67660189083                       # Cumulative time (in ticks) in various power states
system.cpu1.itb_walker_cache.tags.tagsinuse            0                       # Cycle average of tags in use
system.cpu1.itb_walker_cache.tags.total_refs            0                       # Total number of references to valid blocks.
system.cpu1.itb_walker_cache.tags.sampled_refs            0                       # Sample count of references to valid blocks.
system.cpu1.itb_walker_cache.tags.avg_refs          nan                       # Average number of references to valid blocks.
system.cpu1.itb_walker_cache.tags.warmup_cycle            0                       # Cycle when the warmup percentage was hit.
system.cpu1.itb_walker_cache.tags.tag_accesses            0                       # Number of tag accesses
system.cpu1.itb_walker_cache.tags.data_accesses            0                       # Number of data accesses
system.cpu1.itb_walker_cache.tags.repl_invalid            0                       # Number of initial replacements
system.cpu1.itb_walker_cache.tags.repl_valid_tag            0                       # Number of local replacements
system.cpu1.itb_walker_cache.tags.repl_valid_data            0                       # Number of global replacements
system.cpu1.itb.walker.pwrStateResidencyTicks::UNDEFINED  67660189083                       # Cumulative time (in ticks) in various power states
system.cpu1.dtb_walker_cache.pwrStateResidencyTicks::UNDEFINED  67660189083                       # Cumulative time (in ticks) in various power states
system.cpu1.dtb_walker_cache.blocked_cycles::no_mshrs            0                       # number of cycles access was blocked
system.cpu1.dtb_walker_cache.blocked_cycles::no_targets            0                       # number of cycles access was blocked
system.cpu1.dtb_walker_cache.blocked::no_mshrs            0                       # number of cycles access was blocked
system.cpu1.dtb_walker_cache.blocked::no_targets            0                       # number of cycles access was blocked
system.cpu1.dtb_walker_cache.avg_blocked_cycles::no_mshrs          nan                       # average number of cycles each access was blocked
system.cpu1.dtb_walker_cache.avg_blocked_cycles::no_targets          nan                       # average number of cycles each access was blocked
system.cpu1.dtb_walker_cache.replacements            0                       # number of replacements
system.cpu1.dtb_walker_cache.tags.pwrStateResidencyTicks::UNDEFINED  67660189083                       # Cumulative time (in ticks) in various power states
system.cpu1.dtb_walker_cache.tags.tagsinuse            0                       # Cycle average of tags in use
system.cpu1.dtb_walker_cache.tags.total_refs            0                       # Total number of references to valid blocks.
system.cpu1.dtb_walker_cache.tags.sampled_refs            0                       # Sample count of references to valid blocks.
system.cpu1.dtb_walker_cache.tags.avg_refs          nan                       # Average number of references to valid blocks.
system.cpu1.dtb_walker_cache.tags.warmup_cycle            0                       # Cycle when the warmup percentage was hit.
system.cpu1.dtb_walker_cache.tags.tag_accesses            0                       # Number of tag accesses
system.cpu1.dtb_walker_cache.tags.data_accesses            0                       # Number of data accesses
system.cpu1.dtb_walker_cache.tags.repl_invalid            0                       # Number of initial replacements
system.cpu1.dtb_walker_cache.tags.repl_valid_tag            0                       # Number of local replacements
system.cpu1.dtb_walker_cache.tags.repl_valid_data            0                       # Number of global replacements
system.cpu1.dcache.pwrStateResidencyTicks::UNDEFINED  67660189083                       # Cumulative time (in ticks) in various power states
system.cpu1.dcache.demand_hits::.cpu1.data     10817699                       # number of demand (read+write) hits
system.cpu1.dcache.demand_hits::total        10817699                       # number of demand (read+write) hits
system.cpu1.dcache.overall_hits::.cpu1.data     10817699                       # number of overall hits
system.cpu1.dcache.overall_hits::total       10817699                       # number of overall hits
system.cpu1.dcache.demand_misses::.cpu1.data      1117892                       # number of demand (read+write) misses
system.cpu1.dcache.demand_misses::total       1117892                       # number of demand (read+write) misses
system.cpu1.dcache.overall_misses::.cpu1.data      1117892                       # number of overall misses
system.cpu1.dcache.overall_misses::total      1117892                       # number of overall misses
system.cpu1.dcache.demand_miss_latency::.cpu1.data  13824543285                       # number of demand (read+write) miss cycles
system.cpu1.dcache.demand_miss_latency::total  13824543285                       # number of demand (read+write) miss cycles
system.cpu1.dcache.overall_miss_latency::.cpu1.data  13824543285                       # number of overall miss cycles
system.cpu1.dcache.overall_miss_latency::total  13824543285                       # number of overall miss cycles
system.cpu1.dcache.demand_accesses::.cpu1.data     11935591                       # number of demand (read+write) accesses
system.cpu1.dcache.demand_accesses::total     11935591                       # number of demand (read+write) accesses
system.cpu1.dcache.overall_accesses::.cpu1.data     11935591                       # number of overall (read+write) accesses
system.cpu1.dcache.overall_accesses::total     11935591                       # number of overall (read+write) accesses
system.cpu1.dcache.demand_miss_rate::.cpu1.data     0.093660                       # miss rate for demand accesses
system.cpu1.dcache.demand_miss_rate::total     0.093660                       # miss rate for demand accesses
system.cpu1.dcache.overall_miss_rate::.cpu1.data     0.093660                       # miss rate for overall accesses
system.cpu1.dcache.overall_miss_rate::total     0.093660                       # miss rate for overall accesses
system.cpu1.dcache.demand_avg_miss_latency::.cpu1.data 12366.617960                       # average overall miss latency
system.cpu1.dcache.demand_avg_miss_latency::total 12366.617960                       # average overall miss latency
system.cpu1.dcache.overall_avg_miss_latency::.cpu1.data 12366.617960                       # average overall miss latency
system.cpu1.dcache.overall_avg_miss_latency::total 12366.617960                       # average overall miss latency
system.cpu1.dcache.blocked_cycles::no_mshrs            0                       # number of cycles access was blocked
system.cpu1.dcache.blocked_cycles::no_targets            0                       # number of cycles access was blocked
system.cpu1.dcache.blocked::no_mshrs                0                       # number of cycles access was blocked
system.cpu1.dcache.blocked::no_targets              0                       # number of cycles access was blocked
system.cpu1.dcache.avg_blocked_cycles::no_mshrs          nan                       # average number of cycles each access was blocked
system.cpu1.dcache.avg_blocked_cycles::no_targets          nan                       # average number of cycles each access was blocked
system.cpu1.dcache.writebacks::.writebacks       533337                       # number of writebacks
system.cpu1.dcache.writebacks::total           533337                       # number of writebacks
system.cpu1.dcache.demand_mshr_misses::.cpu1.data      1117892                       # number of demand (read+write) MSHR misses
system.cpu1.dcache.demand_mshr_misses::total      1117892                       # number of demand (read+write) MSHR misses
system.cpu1.dcache.overall_mshr_misses::.cpu1.data      1117892                       # number of overall MSHR misses
system.cpu1.dcache.overall_mshr_misses::total      1117892                       # number of overall MSHR misses
system.cpu1.dcache.demand_mshr_miss_latency::.cpu1.data  13080027213                       # number of demand (read+write) MSHR miss cycles
system.cpu1.dcache.demand_mshr_miss_latency::total  13080027213                       # number of demand (read+write) MSHR miss cycles
system.cpu1.dcache.overall_mshr_miss_latency::.cpu1.data  13080027213                       # number of overall MSHR miss cycles
system.cpu1.dcache.overall_mshr_miss_latency::total  13080027213                       # number of overall MSHR miss cycles
system.cpu1.dcache.demand_mshr_miss_rate::.cpu1.data     0.093660                       # mshr miss rate for demand accesses
system.cpu1.dcache.demand_mshr_miss_rate::total     0.093660                       # mshr miss rate for demand accesses
system.cpu1.dcache.overall_mshr_miss_rate::.cpu1.data     0.093660                       # mshr miss rate for overall accesses
system.cpu1.dcache.overall_mshr_miss_rate::total     0.093660                       # mshr miss rate for overall accesses
system.cpu1.dcache.demand_avg_mshr_miss_latency::.cpu1.data 11700.617960                       # average overall mshr miss latency
system.cpu1.dcache.demand_avg_mshr_miss_latency::total 11700.617960                       # average overall mshr miss latency
system.cpu1.dcache.overall_avg_mshr_miss_latency::.cpu1.data 11700.617960                       # average overall mshr miss latency
system.cpu1.dcache.overall_avg_mshr_miss_latency::total 11700.617960                       # average overall mshr miss latency
system.cpu1.dcache.replacements               1117884                       # number of replacements
system.cpu1.dcache.ReadReq_hits::.cpu1.data      6434652                       # number of ReadReq hits
system.cpu1.dcache.ReadReq_hits::total        6434652                       # number of ReadReq hits
system.cpu1.dcache.ReadReq_misses::.cpu1.data      1060481                       # number of ReadReq misses
system.cpu1.dcache.ReadReq_misses::total      1060481                       # number of ReadReq misses
system.cpu1.dcache.ReadReq_miss_latency::.cpu1.data  12672850797                       # number of ReadReq miss cycles
system.cpu1.dcache.ReadReq_miss_latency::total  12672850797                       # number of ReadReq miss cycles
system.cpu1.dcache.ReadReq_accesses::.cpu1.data      7495133                       # number of ReadReq accesses(hits+misses)
system.cpu1.dcache.ReadReq_accesses::total      7495133                       # number of ReadReq accesses(hits+misses)
system.cpu1.dcache.ReadReq_miss_rate::.cpu1.data     0.141489                       # miss rate for ReadReq accesses
system.cpu1.dcache.ReadReq_miss_rate::total     0.141489                       # miss rate for ReadReq accesses
system.cpu1.dcache.ReadReq_avg_miss_latency::.cpu1.data 11950.096981                       # average ReadReq miss latency
system.cpu1.dcache.ReadReq_avg_miss_latency::total 11950.096981                       # average ReadReq miss latency
system.cpu1.dcache.ReadReq_mshr_misses::.cpu1.data      1060481                       # number of ReadReq MSHR misses
system.cpu1.dcache.ReadReq_mshr_misses::total      1060481                       # number of ReadReq MSHR misses
system.cpu1.dcache.ReadReq_mshr_miss_latency::.cpu1.data  11966570451                       # number of ReadReq MSHR miss cycles
system.cpu1.dcache.ReadReq_mshr_miss_latency::total  11966570451                       # number of ReadReq MSHR miss cycles
system.cpu1.dcache.ReadReq_mshr_miss_rate::.cpu1.data     0.141489                       # mshr miss rate for ReadReq accesses
system.cpu1.dcache.ReadReq_mshr_miss_rate::total     0.141489                       # mshr miss rate for ReadReq accesses
system.cpu1.dcache.ReadReq_avg_mshr_miss_latency::.cpu1.data 11284.096981                       # average ReadReq mshr miss latency
system.cpu1.dcache.ReadReq_avg_mshr_miss_latency::total 11284.096981                       # average ReadReq mshr miss latency
system.cpu1.dcache.WriteReq_hits::.cpu1.data      4383047                       # number of WriteReq hits
system.cpu1.dcache.WriteReq_hits::total       4383047                       # number of WriteReq hits
system.cpu1.dcache.WriteReq_misses::.cpu1.data        57411                       # number of WriteReq misses
[...]
system.mem_ctrls.wrQLenPdf::112                     0                       # What write queue length does an incoming req see
system.mem_ctrls.wrQLenPdf::113                     0                       # What write queue length does an incoming req see
system.mem_ctrls.wrQLenPdf::114                     0                       # What write queue length does an incoming req see
system.mem_ctrls.wrQLenPdf::115                     0                       # What write queue length does an incoming req see
system.mem_ctrls.wrQLenPdf::116                     0                       # What write queue length does an incoming req see
system.mem_ctrls.wrQLenPdf::117                     0                       # What write queue length does an incoming req see
system.mem_ctrls.wrQLenPdf::118                     0                       # What write queue length does an incoming req see
system.mem_ctrls.wrQLenPdf::119                     0                       # What write queue length does an incoming req see
system.mem_ctrls.wrQLenPdf::120                     0                       # What write queue length does an incoming req see
system.mem_ctrls.wrQLenPdf::121                     0                       # What write queue length does an incoming req see
system.mem_ctrls.wrQLenPdf::122                     0                       # What write queue length does an incoming req see
system.mem_ctrls.wrQLenPdf::123                     0                       # What write queue length does an incoming req see
system.mem_ctrls.wrQLenPdf::124                     0                       # What write queue length does an incoming req see
system.mem_ctrls.wrQLenPdf::125                     0                       # What write queue length does an incoming req see
system.mem_ctrls.wrQLenPdf::126                     0                       # What write queue length does an incoming req see
system.mem_ctrls.wrQLenPdf::127                     0                       # What write queue length does an incoming req see
system.mem_ctrls.bytesPerActivate::samples       371650                       # Bytes accessed per row activation
system.mem_ctrls.bytesPerActivate::mean            64                       # Bytes accessed per row activation
system.mem_ctrls.bytesPerActivate::gmean    64.000000                       # Bytes accessed per row activation
system.mem_ctrls.bytesPerActivate::64-71       371650    100.00%    100.00% # Bytes accessed per row activation
system.mem_ctrls.bytesPerActivate::total       371650                       # Bytes accessed per row activation
system.mem_ctrls.rdPerTurnAround::samples          172                       # Reads before turning the bus around for writes
system.mem_ctrls.rdPerTurnAround::mean    2099.697674                       # Reads before turning the bus around for writes
system.mem_ctrls.rdPerTurnAround::gmean   1046.660327                       # Reads before turning the bus around for writes
system.mem_ctrls.rdPerTurnAround::stdev  10422.361997                       # Reads before turning the bus around for writes
system.mem_ctrls.rdPerTurnAround::0-4095          161     93.60%     93.60% # Reads before turning the bus around for writes
system.mem_ctrls.rdPerTurnAround::4096-8191            9      5.23%     98.84% # Reads before turning the bus around for writes
system.mem_ctrls.rdPerTurnAround::8192-12287            1      0.58%     99.42% # Reads before turning the bus around for writes
system.mem_ctrls.rdPerTurnAround::135168-139263            1      0.58%    100.00% # Reads before turning the bus around for writes
system.mem_ctrls.rdPerTurnAround::total           172                       # Reads before turning the bus around for writes
system.mem_ctrls.wrPerTurnAround::samples          172                       # Writes before turning the bus around for reads
system.mem_ctrls.wrPerTurnAround::mean      17.988372                       # Writes before turning the bus around for reads
system.mem_ctrls.wrPerTurnAround::gmean     17.987678                       # Writes before turning the bus around for reads
system.mem_ctrls.wrPerTurnAround::stdev      0.152499                       # Writes before turning the bus around for reads
system.mem_ctrls.wrPerTurnAround::16                1      0.58%      0.58% # Writes before turning the bus around for reads
system.mem_ctrls.wrPerTurnAround::18              171     99.42%    100.00% # Writes before turning the bus around for reads
system.mem_ctrls.wrPerTurnAround::total           172                       # Writes before turning the bus around for reads
system.mem_ctrls.bytesReadDRAM               23587584                       # Total number of bytes read from DRAM
system.mem_ctrls.bytesReadWrQ                    5312                       # Total number of bytes read from write queue
system.mem_ctrls.bytesWritten                  198016                       # Total number of bytes written to DRAM
system.mem_ctrls.bytesReadSys                23592896                       # Total read bytes from the system interface side
system.mem_ctrls.bytesWrittenSys               202048                       # Total written bytes from the system interface side
system.mem_ctrls.avgRdBW                       348.62                       # Average DRAM read bandwidth in MiByte/s
system.mem_ctrls.avgWrBW                         2.93                       # Average achieved write bandwidth in MiByte/s
system.mem_ctrls.avgRdBWSys                    348.70                       # Average system read bandwidth in MiByte/s
system.mem_ctrls.avgWrBWSys                      2.99                       # Average system write bandwidth in MiByte/s
system.mem_ctrls.peakBW                      19207.00                       # Theoretical peak bandwidth in MiByte/s
system.mem_ctrls.busUtil                         1.83                       # Data bus utilization in percentage
system.mem_ctrls.busUtilRead                     1.82                       # Data bus utilization in percentage for reads
system.mem_ctrls.busUtilWrite                    0.02                       # Data bus utilization in percentage for writes
system.mem_ctrls.totGap                   67660107165                       # Total gap between requests
system.mem_ctrls.avgGap                     181981.80                       # Average gap between requests
system.mem_ctrls.masterReadBytes::.cpu0.inst        28736                       # Per-master bytes read from memory
system.mem_ctrls.masterReadBytes::.cpu0.data     22238144                       # Per-master bytes read from memory
system.mem_ctrls.masterReadBytes::.cpu1.inst       188544                       # Per-master bytes read from memory
system.mem_ctrls.masterReadBytes::.cpu1.data      1132160                       # Per-master bytes read from memory
system.mem_ctrls.masterWriteBytes::.writebacks       198016                       # Per-master bytes write to memory
system.mem_ctrls.masterReadRate::.cpu0.inst 424710.607366896642                       # Per-master bytes read from memory rate (Bytes/sec)
system.mem_ctrls.masterReadRate::.cpu0.data 328673985.417333900928                       # Per-master bytes read from memory rate (Bytes/sec)
system.mem_ctrls.masterReadRate::.cpu1.inst 2786631.290206853766                       # Per-master bytes read from memory rate (Bytes/sec)
system.mem_ctrls.masterReadRate::.cpu1.data 16733030.388241427019                       # Per-master bytes read from memory rate (Bytes/sec)
system.mem_ctrls.masterWriteRate::.writebacks 2926624.987067211885                       # Per-master bytes write to memory rate (Bytes/sec)
system.mem_ctrls.masterReadAccesses::.cpu0.inst          449                       # Per-master read serviced memory accesses
system.mem_ctrls.masterReadAccesses::.cpu0.data       347473                       # Per-master read serviced memory accesses
system.mem_ctrls.masterReadAccesses::.cpu1.inst         2946                       # Per-master read serviced memory accesses
system.mem_ctrls.masterReadAccesses::.cpu1.data        17771                       # Per-master read serviced memory accesses
system.mem_ctrls.masterWriteAccesses::.writebacks         3157                       # Per-master write serviced memory accesses
system.mem_ctrls.masterReadTotalLat::.cpu0.inst     16313770                       # Per-master read total memory access latency
system.mem_ctrls.masterReadTotalLat::.cpu0.data  13995677144                       # Per-master read total memory access latency
system.mem_ctrls.masterReadTotalLat::.cpu1.inst    107823389                       # Per-master read total memory access latency
system.mem_ctrls.masterReadTotalLat::.cpu1.data    698224493                       # Per-master read total memory access latency
system.mem_ctrls.masterWriteTotalLat::.writebacks 2518323135928                       # Per-master write total memory access latency
system.mem_ctrls.masterReadAvgLat::.cpu0.inst     36333.56                       # Per-master read average memory access latency
system.mem_ctrls.masterReadAvgLat::.cpu0.data     40278.46                       # Per-master read average memory access latency
system.mem_ctrls.masterReadAvgLat::.cpu1.inst     36599.93                       # Per-master read average memory access latency
system.mem_ctrls.masterReadAvgLat::.cpu1.data     39290.11                       # Per-master read average memory access latency
system.mem_ctrls.masterWriteAvgLat::.writebacks 797695006.63                       # Per-master write average memory access latency
system.mem_ctrls.pageHitRate                     0.00                       # Row buffer hit rate, read and write combined
system.mem_ctrls.rank1.actEnergy         289479441.887989                       # Energy for activate commands per rank (pJ)
system.mem_ctrls.rank1.preEnergy         511042553.179281                       # Energy for precharge commands per rank (pJ)
system.mem_ctrls.rank1.readEnergy        505039647.302356                       # Energy for read commands per rank (pJ)
system.mem_ctrls.rank1.writeEnergy       3566892.672000                       # Energy for write commands per rank (pJ)
system.mem_ctrls.rank1.refreshEnergy     5873184726.023398                       # Energy for refresh commands per rank (pJ)
system.mem_ctrls.rank1.actBackEnergy     4162516781.018453                       # Energy for active background per rank (pJ)
system.mem_ctrls.rank1.preBackEnergy     19210670129.011395                       # Energy for precharge background per rank (pJ)
system.mem_ctrls.rank1.actPowerDownEnergy            0                       # Energy for active power-down per rank (pJ)
system.mem_ctrls.rank1.prePowerDownEnergy            0                       # Energy for precharge power-down per rank (pJ)
system.mem_ctrls.rank1.selfRefreshEnergy            0                       # Energy for self refresh per rank (pJ)
system.mem_ctrls.rank1.totalEnergy       30555500171.095684                       # Total energy per rank (pJ)
system.mem_ctrls.rank1.averagePower        451.602347                       # Core power per rank (mW)
system.mem_ctrls.rank1.totalIdleTime                0                       # Total Idle time Per DRAM Rank
system.mem_ctrls.rank1.memoryStateTime::IDLE  56159002189                       # Time in different power states
system.mem_ctrls.rank1.memoryStateTime::REF   3041500000                       # Time in different power states
system.mem_ctrls.rank1.memoryStateTime::SREF            0                       # Time in different power states
system.mem_ctrls.rank1.memoryStateTime::PRE_PDN            0                       # Time in different power states
system.mem_ctrls.rank1.memoryStateTime::ACT   8459686894                       # Time in different power states
system.mem_ctrls.rank1.memoryStateTime::ACT_PDN            0                       # Time in different power states
system.mem_ctrls.rank0.actEnergy         290062648.511989                       # Energy for activate commands per rank (pJ)
system.mem_ctrls.rank0.preEnergy         512072137.180880                       # Energy for precharge commands per rank (pJ)
system.mem_ctrls.rank0.readEnergy        505873489.631956                       # Energy for read commands per rank (pJ)
system.mem_ctrls.rank0.writeEnergy       3732026.592000                       # Energy for write commands per rank (pJ)
system.mem_ctrls.rank0.refreshEnergy     5873184726.023398                       # Energy for refresh commands per rank (pJ)
system.mem_ctrls.rank0.actBackEnergy     4166003467.785650                       # Energy for active background per rank (pJ)
system.mem_ctrls.rank0.preBackEnergy     19208263076.217831                       # Energy for precharge background per rank (pJ)
system.mem_ctrls.rank0.actPowerDownEnergy            0                       # Energy for active power-down per rank (pJ)
system.mem_ctrls.rank0.prePowerDownEnergy            0                       # Energy for precharge power-down per rank (pJ)
system.mem_ctrls.rank0.selfRefreshEnergy            0                       # Energy for self refresh per rank (pJ)
system.mem_ctrls.rank0.totalEnergy       30559191571.944313                       # Total energy per rank (pJ)
system.mem_ctrls.rank0.averagePower        451.656905                       # Core power per rank (mW)
system.mem_ctrls.rank0.totalIdleTime                0                       # Total Idle time Per DRAM Rank
system.mem_ctrls.rank0.memoryStateTime::IDLE  56149905617                       # Time in different power states
system.mem_ctrls.rank0.memoryStateTime::REF   3041500000                       # Time in different power states
system.mem_ctrls.rank0.memoryStateTime::SREF            0                       # Time in different power states
system.mem_ctrls.rank0.memoryStateTime::PRE_PDN            0                       # Time in different power states
system.mem_ctrls.rank0.memoryStateTime::ACT   8468783466                       # Time in different power states
system.mem_ctrls.rank0.memoryStateTime::ACT_PDN            0                       # Time in different power states
system.cpu_clk_domain.clock                       333                       # Clock period in ticks
system.tol2bus.pwrStateResidencyTicks::UNDEFINED  67660189083                       # Cumulative time (in ticks) in various power states
system.tol2bus.trans_dist::ReadResp           1411830                       # Transaction distribution
system.tol2bus.trans_dist::WritebackDirty       537009                       # Transaction distribution
system.tol2bus.trans_dist::WritebackClean         2746                       # Transaction distribution
system.tol2bus.trans_dist::CleanEvict         1042784                       # Transaction distribution
system.tol2bus.trans_dist::ReadExReq            57667                       # Transaction distribution
system.tol2bus.trans_dist::ReadExResp           57667                       # Transaction distribution
system.tol2bus.trans_dist::ReadCleanReq          3689                       # Transaction distribution
system.tol2bus.trans_dist::ReadSharedReq      1408141                       # Transaction distribution
system.tol2bus.pkt_count_system.cpu0.icache.mem_side::system.l2.cpu_side          916                       # Packet count per connected master and slave (bytes)
system.tol2bus.pkt_count_system.cpu0.dcache.mem_side::system.l2.cpu_side      1043740                       # Packet count per connected master and slave (bytes)
system.tol2bus.pkt_count_system.cpu1.icache.mem_side::system.l2.cpu_side         9208                       # Packet count per connected master and slave (bytes)
system.tol2bus.pkt_count_system.cpu1.dcache.mem_side::system.l2.cpu_side      3353668                       # Packet count per connected master and slave (bytes)
system.tol2bus.pkt_count::total               4407532                       # Packet count per connected master and slave (bytes)
system.tol2bus.pkt_size_system.cpu0.icache.mem_side::system.l2.cpu_side        29888                       # Cumulative packet size per connected master and slave (bytes)
system.tol2bus.pkt_size_system.cpu0.dcache.mem_side::system.l2.cpu_side     22299584                       # Cumulative packet size per connected master and slave (bytes)
system.tol2bus.pkt_size_system.cpu1.icache.mem_side::system.l2.cpu_side       381952                       # Cumulative packet size per connected master and slave (bytes)
system.tol2bus.pkt_size_system.cpu1.dcache.mem_side::system.l2.cpu_side    105678656                       # Cumulative packet size per connected master and slave (bytes)
system.tol2bus.pkt_size::total              128390080                       # Cumulative packet size per connected master and slave (bytes)
system.tol2bus.snoops                          114001                       # Total snoops (count)
system.tol2bus.snoopTraffic                    202048                       # Total snoop traffic (bytes)
system.tol2bus.snoop_fanout::samples          1583498                       # Request fanout histogram
system.tol2bus.snoop_fanout::mean            0.000436                       # Request fanout histogram
system.tol2bus.snoop_fanout::stdev           0.020885                       # Request fanout histogram
system.tol2bus.snoop_fanout::underflows             0      0.00%      0.00% # Request fanout histogram
system.tol2bus.snoop_fanout::0                1582807     99.96%     99.96% # Request fanout histogram
system.tol2bus.snoop_fanout::1                    691      0.04%    100.00% # Request fanout histogram
system.tol2bus.snoop_fanout::2                      0      0.00%    100.00% # Request fanout histogram
system.tol2bus.snoop_fanout::3                      0      0.00%    100.00% # Request fanout histogram
system.tol2bus.snoop_fanout::4                      0      0.00%    100.00% # Request fanout histogram
system.tol2bus.snoop_fanout::5                      0      0.00%    100.00% # Request fanout histogram
system.tol2bus.snoop_fanout::6                      0      0.00%    100.00% # Request fanout histogram
system.tol2bus.snoop_fanout::7                      0      0.00%    100.00% # Request fanout histogram
system.tol2bus.snoop_fanout::8                      0      0.00%    100.00% # Request fanout histogram
system.tol2bus.snoop_fanout::overflows              0      0.00%    100.00% # Request fanout histogram
system.tol2bus.snoop_fanout::min_value              0                       # Request fanout histogram
system.tol2bus.snoop_fanout::max_value              1                       # Request fanout histogram
system.tol2bus.snoop_fanout::total            1583498                       # Request fanout histogram
system.tol2bus.reqLayer0.occupancy         1335739923                       # Layer occupancy (ticks)
system.tol2bus.reqLayer0.utilization              2.0                       # Layer utilization (%)
system.tol2bus.respLayer5.occupancy        1116774108                       # Layer occupancy (ticks)
system.tol2bus.respLayer5.utilization             1.7                       # Layer utilization (%)
system.tol2bus.respLayer4.occupancy           3237092                       # Layer occupancy (ticks)
system.tol2bus.respLayer4.utilization             0.0                       # Layer utilization (%)
system.tol2bus.respLayer1.occupancy         348181288                       # Layer occupancy (ticks)
system.tol2bus.respLayer1.utilization             0.5                       # Layer utilization (%)
system.tol2bus.respLayer0.occupancy            448551                       # Layer occupancy (ticks)
system.tol2bus.respLayer0.utilization             0.0                       # Layer utilization (%)

---------- End Simulation Statistics   ----------
