
---------- Begin Simulation Statistics ----------
final_tick                               1920143532735                       # Number of ticks from beginning of simulation (restored from checkpoints and never reset)
host_inst_rate                                 462720                       # Simulator instruction rate (inst/s)
host_mem_usage                                8929880                       # Number of bytes of host memory used
host_op_rate                                   968787                       # Simulator op (including micro ops) rate (op/s)
host_seconds                                  4282.57                       # Real time elapsed on the host
host_tick_rate                              448362524                       # Simulator tick rate (ticks/s)
sim_freq                                 1000000000000                       # Frequency of simulated ticks
sim_insts                                  1981628766                       # Number of instructions simulated
sim_ops                                    4148898758                       # Number of ops (including micro ops) simulated
sim_seconds                                  1.920144                       # Number of seconds simulated
sim_ticks                                1920143532735                       # Number of ticks simulated
system.cpu0.Branches                        100005070                       # Number of branches fetched
system.cpu0.committedInsts                 1000000001                       # Number of instructions committed
system.cpu0.committedOps                   1900003052                       # Number of ops (including micro ops) committed
system.cpu0.dtb.rdAccesses                  399992433                       # TLB accesses on read requests
system.cpu0.dtb.rdMisses                       195621                       # TLB misses on read requests
system.cpu0.dtb.wrAccesses                  199997894                       # TLB accesses on write requests
system.cpu0.dtb.wrMisses                           42                       # TLB misses on write requests
system.cpu0.idle_fraction                           0                       # Percentage of idle cycles
system.cpu0.itb.rdAccesses                          0                       # TLB accesses on read requests
system.cpu0.itb.rdMisses                            0                       # TLB misses on read requests
system.cpu0.itb.wrAccesses                 1300001549                       # TLB accesses on write requests
system.cpu0.itb.wrMisses                           42                       # TLB misses on write requests
system.cpu0.not_idle_fraction                       1                       # Percentage of non-idle cycles
system.cpu0.numCycles                      5766196795                       # number of cpu cycles simulated
system.cpu0.numWorkItemsCompleted                   0                       # number of work items this cpu completed
system.cpu0.numWorkItemsStarted                     0                       # number of work items this cpu started
system.cpu0.num_busy_cycles                5766196795                       # Number of busy cycles
system.cpu0.num_cc_register_reads           500025690                       # number of times the CC registers were read
system.cpu0.num_cc_register_writes          600000804                       # number of times the CC registers were written
system.cpu0.num_conditional_control_insts    100002724                       # number of instructions that are conditional controls
system.cpu0.num_fp_alu_accesses                  5835                       # Number of float alu accesses
system.cpu0.num_fp_insts                         5835                       # number of float instructions
system.cpu0.num_fp_register_reads                8883                       # number of times the floating registers were read
system.cpu0.num_fp_register_writes               4418                       # number of times the floating registers were written
system.cpu0.num_func_calls                       1296                       # number of times a function call or return occured
system.cpu0.num_idle_cycles                         0                       # Number of idle cycles
system.cpu0.num_int_alu_accesses           1899998501                       # Number of integer alu accesses
system.cpu0.num_int_insts                  1899998501                       # number of integer instructions
system.cpu0.num_int_register_reads         3799992253                       # number of times the integer registers were read
system.cpu0.num_int_register_writes        1599995227                       # number of times the integer registers were written
system.cpu0.num_load_insts                  399992395                       # Number of load instructions
system.cpu0.num_mem_refs                    599990254                       # number of memory refs
system.cpu0.num_store_insts                 199997859                       # Number of store instructions
system.cpu0.num_vec_alu_accesses                    0                       # Number of vector alu accesses
system.cpu0.num_vec_insts                           0                       # number of vector instructions
system.cpu0.num_vec_register_reads                  0                       # number of times the vector registers were read
system.cpu0.num_vec_register_writes                 0                       # number of times the vector registers were written
system.cpu0.op_class::No_OpClass                 1238      0.00%      0.00% # Class of executed instruction
system.cpu0.op_class::IntAlu               1300007784     68.42%     68.42% # Class of executed instruction
system.cpu0.op_class::IntMult                      65      0.00%     68.42% # Class of executed instruction
system.cpu0.op_class::IntDiv                      273      0.00%     68.42% # Class of executed instruction
system.cpu0.op_class::FloatAdd                    210      0.00%     68.42% # Class of executed instruction
system.cpu0.op_class::FloatCmp                      0      0.00%     68.42% # Class of executed instruction
system.cpu0.op_class::FloatCvt                      0      0.00%     68.42% # Class of executed instruction
system.cpu0.op_class::FloatMult                     0      0.00%     68.42% # Class of executed instruction
system.cpu0.op_class::FloatMultAcc                  0      0.00%     68.42% # Class of executed instruction
system.cpu0.op_class::FloatDiv                      0      0.00%     68.42% # Class of executed instruction
system.cpu0.op_class::FloatMisc                     0      0.00%     68.42% # Class of executed instruction
system.cpu0.op_class::FloatSqrt                     0      0.00%     68.42% # Class of executed instruction
system.cpu0.op_class::SimdAdd                       0      0.00%     68.42% # Class of executed instruction
system.cpu0.op_class::SimdAddAcc                    0      0.00%     68.42% # Class of executed instruction
system.cpu0.op_class::SimdAlu                     794      0.00%     68.42% # Class of executed instruction
system.cpu0.op_class::SimdCmp                       0      0.00%     68.42% # Class of executed instruction
system.cpu0.op_class::SimdCvt                    1166      0.00%     68.42% # Class of executed instruction
system.cpu0.op_class::SimdMisc                   1268      0.00%     68.42% # Class of executed instruction
system.cpu0.op_class::SimdMult                      0      0.00%     68.42% # Class of executed instruction
system.cpu0.op_class::SimdMultAcc                   0      0.00%     68.42% # Class of executed instruction
system.cpu0.op_class::SimdShift                     0      0.00%     68.42% # Class of executed instruction
system.cpu0.op_class::SimdShiftAcc                  0      0.00%     68.42% # Class of executed instruction
system.cpu0.op_class::SimdDiv                       0      0.00%     68.42% # Class of executed instruction
system.cpu0.op_class::SimdSqrt                      0      0.00%     68.42% # Class of executed instruction
system.cpu0.op_class::SimdFloatAdd                  0      0.00%     68.42% # Class of executed instruction
system.cpu0.op_class::SimdFloatAlu                  0      0.00%     68.42% # Class of executed instruction
system.cpu0.op_class::SimdFloatCmp                  0      0.00%     68.42% # Class of executed instruction
system.cpu0.op_class::SimdFloatCvt                  0      0.00%     68.42% # Class of executed instruction
system.cpu0.op_class::SimdFloatDiv                  0      0.00%     68.42% # Class of executed instruction
system.cpu0.op_class::SimdFloatMisc                 0      0.00%     68.42% # Class of executed instruction
system.cpu0.op_class::SimdFloatMult                 0      0.00%     68.42% # Class of executed instruction
system.cpu0.op_class::SimdFloatMultAcc              0      0.00%     68.42% # Class of executed instruction
system.cpu0.op_class::SimdFloatSqrt                 0      0.00%     68.42% # Class of executed instruction
system.cpu0.op_class::SimdReduceAdd                 0      0.00%     68.42% # Class of executed instruction
system.cpu0.op_class::SimdReduceAlu                 0      0.00%     68.42% # Class of executed instruction
system.cpu0.op_class::SimdReduceCmp                 0      0.00%     68.42% # Class of executed instruction
system.cpu0.op_class::SimdFloatReduceAdd            0      0.00%     68.42% # Class of executed instruction
system.cpu0.op_class::SimdFloatReduceCmp            0      0.00%     68.42% # Class of executed instruction
system.cpu0.op_class::SimdAes                       0      0.00%     68.42% # Class of executed instruction
system.cpu0.op_class::SimdAesMix                    0      0.00%     68.42% # Class of executed instruction
system.cpu0.op_class::SimdSha1Hash                  0      0.00%     68.42% # Class of executed instruction
system.cpu0.op_class::SimdSha1Hash2                 0      0.00%     68.42% # Class of executed instruction
system.cpu0.op_class::SimdSha256Hash                0      0.00%     68.42% # Class of executed instruction
system.cpu0.op_class::SimdSha256Hash2               0      0.00%     68.42% # Class of executed instruction
system.cpu0.op_class::SimdShaSigma2                 0      0.00%     68.42% # Class of executed instruction
system.cpu0.op_class::SimdShaSigma3                 0      0.00%     68.42% # Class of executed instruction
system.cpu0.op_class::SimdPredAlu                   0      0.00%     68.42% # Class of executed instruction
system.cpu0.op_class::MemRead               399991440     21.05%     89.47% # Class of executed instruction
system.cpu0.op_class::MemWrite              199997048     10.53%    100.00% # Class of executed instruction
system.cpu0.op_class::FloatMemRead                955      0.00%    100.00% # Class of executed instruction
system.cpu0.op_class::FloatMemWrite               811      0.00%    100.00% # Class of executed instruction
system.cpu0.op_class::IprAccess                     0      0.00%    100.00% # Class of executed instruction
system.cpu0.op_class::InstPrefetch                  0      0.00%    100.00% # Class of executed instruction
system.cpu0.op_class::total                1900003052                       # Class of executed instruction
system.cpu0.workload.numSyscalls                   45                       # Number of system calls
system.cpu1.Branches                        247309408                       # Number of branches fetched
system.cpu1.committedInsts                  981628765                       # Number of instructions committed
system.cpu1.committedOps                   2248895706                       # Number of ops (including micro ops) committed
system.cpu1.dtb.rdAccesses                  232360618                       # TLB accesses on read requests
system.cpu1.dtb.rdMisses                        81105                       # TLB misses on read requests
system.cpu1.dtb.wrAccesses                   73709360                       # TLB accesses on write requests
system.cpu1.dtb.wrMisses                        13577                       # TLB misses on write requests
system.cpu1.idle_fraction                           0                       # Percentage of idle cycles
system.cpu1.itb.rdAccesses                          0                       # TLB accesses on read requests
system.cpu1.itb.rdMisses                            0                       # TLB misses on read requests
system.cpu1.itb.wrAccesses                 1250556663                       # TLB accesses on write requests
system.cpu1.itb.wrMisses                         1025                       # TLB misses on write requests
system.cpu1.not_idle_fraction                       1                       # Percentage of non-idle cycles
system.cpu1.numCycles                      5766196791                       # number of cpu cycles simulated
system.cpu1.numWorkItemsCompleted                   0                       # number of work items this cpu completed
system.cpu1.numWorkItemsStarted                     0                       # number of work items this cpu started
system.cpu1.num_busy_cycles                5766196791                       # Number of busy cycles
system.cpu1.num_cc_register_reads          1711011959                       # number of times the CC registers were read
system.cpu1.num_cc_register_writes          653809148                       # number of times the CC registers were written
system.cpu1.num_conditional_control_insts    186850530                       # number of instructions that are conditional controls
system.cpu1.num_fp_alu_accesses             191137904                       # Number of float alu accesses
system.cpu1.num_fp_insts                    191137904                       # number of float instructions
system.cpu1.num_fp_register_reads           311557689                       # number of times the floating registers were read
system.cpu1.num_fp_register_writes          159382997                       # number of times the floating registers were written
system.cpu1.num_func_calls                   31820056                       # number of times a function call or return occured
system.cpu1.num_idle_cycles                         0                       # Number of idle cycles
system.cpu1.num_int_alu_accesses           2070846865                       # Number of integer alu accesses
system.cpu1.num_int_insts                  2070846865                       # number of integer instructions
system.cpu1.num_int_register_reads         3950828390                       # number of times the integer registers were read
system.cpu1.num_int_register_writes        1733359279                       # number of times the integer registers were written
system.cpu1.num_load_insts                  230065736                       # Number of load instructions
system.cpu1.num_mem_refs                    303753121                       # number of memory refs
system.cpu1.num_store_insts                  73687385                       # Number of store instructions
system.cpu1.num_vec_alu_accesses                    0                       # Number of vector alu accesses
system.cpu1.num_vec_insts                           0                       # number of vector instructions
system.cpu1.num_vec_register_reads                  0                       # number of times the vector registers were read
system.cpu1.num_vec_register_writes                 0                       # number of times the vector registers were written
system.cpu1.op_class::No_OpClass             60188806      2.68%      2.68% # Class of executed instruction
system.cpu1.op_class::IntAlu               1735847478     77.18%     79.86% # Class of executed instruction
system.cpu1.op_class::IntMult                 8369836      0.37%     80.23% # Class of executed instruction
system.cpu1.op_class::IntDiv                   711516      0.03%     80.26% # Class of executed instruction
system.cpu1.op_class::FloatAdd                1396940      0.06%     80.32% # Class of executed instruction
system.cpu1.op_class::FloatCmp                      0      0.00%     80.32% # Class of executed instruction
system.cpu1.op_class::FloatCvt                      0      0.00%     80.32% # Class of executed instruction
system.cpu1.op_class::FloatMult                     0      0.00%     80.32% # Class of executed instruction
system.cpu1.op_class::FloatMultAcc                  0      0.00%     80.32% # Class of executed instruction
system.cpu1.op_class::FloatDiv                      0      0.00%     80.32% # Class of executed instruction
system.cpu1.op_class::FloatMisc                     0      0.00%     80.32% # Class of executed instruction
system.cpu1.op_class::FloatSqrt                     0      0.00%     80.32% # Class of executed instruction
system.cpu1.op_class::SimdAdd                11696596      0.52%     80.84% # Class of executed instruction
system.cpu1.op_class::SimdAddAcc                    0      0.00%     80.84% # Class of executed instruction
system.cpu1.op_class::SimdAlu                58471983      2.60%     83.44% # Class of executed instruction
system.cpu1.op_class::SimdCmp                    7880      0.00%     83.44% # Class of executed instruction
system.cpu1.op_class::SimdCvt                34815392      1.55%     84.99% # Class of executed instruction
system.cpu1.op_class::SimdMisc               23858571      1.06%     86.05% # Class of executed instruction
system.cpu1.op_class::SimdMult                      0      0.00%     86.05% # Class of executed instruction
system.cpu1.op_class::SimdMultAcc                   0      0.00%     86.05% # Class of executed instruction
system.cpu1.op_class::SimdShift               8223592      0.37%     86.42% # Class of executed instruction
system.cpu1.op_class::SimdShiftAcc                  0      0.00%     86.42% # Class of executed instruction
system.cpu1.op_class::SimdDiv                       0      0.00%     86.42% # Class of executed instruction
system.cpu1.op_class::SimdSqrt                      0      0.00%     86.42% # Class of executed instruction
system.cpu1.op_class::SimdFloatAdd             731444      0.03%     86.45% # Class of executed instruction
system.cpu1.op_class::SimdFloatAlu                  0      0.00%     86.45% # Class of executed instruction
system.cpu1.op_class::SimdFloatCmp                 50      0.00%     86.45% # Class of executed instruction
system.cpu1.op_class::SimdFloatCvt             346613      0.02%     86.47% # Class of executed instruction
system.cpu1.op_class::SimdFloatDiv                308      0.00%     86.47% # Class of executed instruction
system.cpu1.op_class::SimdFloatMisc                 0      0.00%     86.47% # Class of executed instruction
system.cpu1.op_class::SimdFloatMult            600946      0.03%     86.49% # Class of executed instruction
system.cpu1.op_class::SimdFloatMultAcc              0      0.00%     86.49% # Class of executed instruction
system.cpu1.op_class::SimdFloatSqrt                18      0.00%     86.49% # Class of executed instruction
system.cpu1.op_class::SimdReduceAdd                 0      0.00%     86.49% # Class of executed instruction
system.cpu1.op_class::SimdReduceAlu                 0      0.00%     86.49% # Class of executed instruction
system.cpu1.op_class::SimdReduceCmp                 0      0.00%     86.49% # Class of executed instruction
system.cpu1.op_class::SimdFloatReduceAdd            0      0.00%     86.49% # Class of executed instruction
system.cpu1.op_class::SimdFloatReduceCmp            0      0.00%     86.49% # Class of executed instruction
system.cpu1.op_class::SimdAes                       0      0.00%     86.49% # Class of executed instruction
system.cpu1.op_class::SimdAesMix                    0      0.00%     86.49% # Class of executed instruction
system.cpu1.op_class::SimdSha1Hash                  0      0.00%     86.49% # Class of executed instruction
system.cpu1.op_class::SimdSha1Hash2                 0      0.00%     86.49% # Class of executed instruction
system.cpu1.op_class::SimdSha256Hash                0      0.00%     86.49% # Class of executed instruction
system.cpu1.op_class::SimdSha256Hash2               0      0.00%     86.49% # Class of executed instruction
system.cpu1.op_class::SimdShaSigma2                 0      0.00%     86.49% # Class of executed instruction
system.cpu1.op_class::SimdShaSigma3                 0      0.00%     86.49% # Class of executed instruction
system.cpu1.op_class::SimdPredAlu                   0      0.00%     86.49% # Class of executed instruction
system.cpu1.op_class::MemRead               188158940      8.37%     94.86% # Class of executed instruction
system.cpu1.op_class::MemWrite               65450146      2.91%     97.77% # Class of executed instruction
system.cpu1.op_class::FloatMemRead           41906796      1.86%     99.63% # Class of executed instruction
system.cpu1.op_class::FloatMemWrite           8237239      0.37%    100.00% # Class of executed instruction
system.cpu1.op_class::IprAccess                     0      0.00%    100.00% # Class of executed instruction
system.cpu1.op_class::InstPrefetch                  0      0.00%    100.00% # Class of executed instruction
system.cpu1.op_class::total                2249021090                       # Class of executed instruction
system.cpu1.workload.numSyscalls                 2338                       # Number of system calls
system.membus.snoop_filter.hit_multi_requests            0                       # Number of requests hitting in the snoop filter with multiple (>1) holders of the requested data.
system.membus.snoop_filter.hit_multi_snoops            0                       # Number of snoops hitting in the snoop filter with multiple (>1) holders of the requested data.
system.membus.snoop_filter.hit_single_requests      7818571                       # Number of requests hitting in the snoop filter with a single holder of the requested data.
system.membus.snoop_filter.hit_single_snoops            0                       # Number of snoops hitting in the snoop filter with a single holder of the requested data.
system.membus.snoop_filter.tot_requests      15900184                       # Total number of requests made to the snoop filter.
system.membus.snoop_filter.tot_snoops               0                       # Total number of snoops made to the snoop filter.
system.tol2bus.snoop_filter.hit_multi_requests            0                       # Number of requests hitting in the snoop filter with multiple (>1) holders of the requested data.
system.tol2bus.snoop_filter.hit_multi_snoops            0                       # Number of snoops hitting in the snoop filter with multiple (>1) holders of the requested data.
system.tol2bus.snoop_filter.hit_single_requests     98851612                       # Number of requests hitting in the snoop filter with a single holder of the requested data.
system.tol2bus.snoop_filter.hit_single_snoops         2916                       # Number of snoops hitting in the snoop filter with a single holder of the requested data.
system.tol2bus.snoop_filter.tot_requests    197704166                       # Total number of requests made to the snoop filter.
system.tol2bus.snoop_filter.tot_snoops           2916                       # Total number of snoops made to the snoop filter.
system.membus.pwrStateResidencyTicks::UNDEFINED 1920143532735                       # Cumulative time (in ticks) in various power states
system.membus.trans_dist::ReadResp            7286856                       # Transaction distribution
system.membus.trans_dist::WritebackDirty       800200                       # Transaction distribution
system.membus.trans_dist::CleanEvict          7018371                       # Transaction distribution
system.membus.trans_dist::ReadExReq            794757                       # Transaction distribution
system.membus.trans_dist::ReadExResp           794757                       # Transaction distribution
system.membus.trans_dist::ReadSharedReq       7286856                       # Transaction distribution
system.membus.pkt_count_system.l2.mem_side::system.mem_ctrls.port     23981797                       # Packet count per connected master and slave (bytes)
system.membus.pkt_count_system.l2.mem_side::total     23981797                       # Packet count per connected master and slave (bytes)
system.membus.pkt_count::total               23981797                       # Packet count per connected master and slave (bytes)
system.membus.pkt_size_system.l2.mem_side::system.mem_ctrls.port    568436032                       # Cumulative packet size per connected master and slave (bytes)
system.membus.pkt_size_system.l2.mem_side::total    568436032                       # Cumulative packet size per connected master and slave (bytes)
system.membus.pkt_size::total               568436032                       # Cumulative packet size per connected master and slave (bytes)
system.membus.snoops                                0                       # Total snoops (count)
system.membus.snoopTraffic                          0                       # Total snoop traffic (bytes)
system.membus.snoop_fanout::samples           8081613                       # Request fanout histogram
system.membus.snoop_fanout::mean                    0                       # Request fanout histogram
system.membus.snoop_fanout::stdev                   0                       # Request fanout histogram
system.membus.snoop_fanout::underflows              0      0.00%      0.00% # Request fanout histogram
system.membus.snoop_fanout::0                 8081613    100.00%    100.00% # Request fanout histogram
system.membus.snoop_fanout::1                       0      0.00%    100.00% # Request fanout histogram
system.membus.snoop_fanout::overflows               0      0.00%    100.00% # Request fanout histogram
system.membus.snoop_fanout::min_value               0                       # Request fanout histogram
system.membus.snoop_fanout::max_value               0                       # Request fanout histogram
system.membus.snoop_fanout::total             8081613                       # Request fanout histogram
system.membus.reqLayer4.occupancy         29762926977                       # Layer occupancy (ticks)
system.membus.reqLayer4.utilization               1.6                       # Layer utilization (%)
system.membus.respLayer1.occupancy        43233304232                       # Layer occupancy (ticks)
system.membus.respLayer1.utilization              2.3                       # Layer utilization (%)
system.voltage_domain.voltage                       1                       # Voltage in Volts
system.clk_domain.clock                          1000                       # Clock period in ticks
system.cpu0.numPwrStateTransitions                  1                       # Number of power state transitions
system.cpu0.pwrStateResidencyTicks::ON   1920143532735                       # Cumulative time (in ticks) in various power states
system.cpu0.icache.pwrStateResidencyTicks::UNDEFINED 1920143532735                       # Cumulative time (in ticks) in various power states
system.cpu0.icache.demand_hits::.cpu0.inst   1300001096                       # number of demand (read+write) hits
system.cpu0.icache.demand_hits::total      1300001096                       # number of demand (read+write) hits
system.cpu0.icache.overall_hits::.cpu0.inst   1300001096                       # number of overall hits
system.cpu0.icache.overall_hits::total     1300001096                       # number of overall hits
system.cpu0.icache.demand_misses::.cpu0.inst          453                       # number of demand (read+write) misses
system.cpu0.icache.demand_misses::total           453                       # number of demand (read+write) misses
system.cpu0.icache.overall_misses::.cpu0.inst          453                       # number of overall misses
system.cpu0.icache.overall_misses::total          453                       # number of overall misses
system.cpu0.icache.demand_miss_latency::.cpu0.inst     37523106                       # number of demand (read+write) miss cycles
system.cpu0.icache.demand_miss_latency::total     37523106                       # number of demand (read+write) miss cycles
system.cpu0.icache.overall_miss_latency::.cpu0.inst     37523106                       # number of overall miss cycles
system.cpu0.icache.overall_miss_latency::total     37523106                       # number of overall miss cycles
system.cpu0.icache.demand_accesses::.cpu0.inst   1300001549                       # number of demand (read+write) accesses
system.cpu0.icache.demand_accesses::total   1300001549                       # number of demand (read+write) accesses
system.cpu0.icache.overall_accesses::.cpu0.inst   1300001549                       # number of overall (read+write) accesses
system.cpu0.icache.overall_accesses::total   1300001549                       # number of overall (read+write) accesses
system.cpu0.icache.demand_miss_rate::.cpu0.inst     0.000000                       # miss rate for demand accesses
system.cpu0.icache.demand_miss_rate::total     0.000000                       # miss rate for demand accesses
system.cpu0.icache.overall_miss_rate::.cpu0.inst     0.000000                       # miss rate for overall accesses
system.cpu0.icache.overall_miss_rate::total     0.000000                       # miss rate for overall accesses
system.cpu0.icache.demand_avg_miss_latency::.cpu0.inst 82832.463576                       # average overall miss latency
system.cpu0.icache.demand_avg_miss_latency::total 82832.463576                       # average overall miss latency
system.cpu0.icache.overall_avg_miss_latency::.cpu0.inst 82832.463576                       # average overall miss latency
system.cpu0.icache.overall_avg_miss_latency::total 82832.463576                       # average overall miss latency
system.cpu0.icache.blocked_cycles::no_mshrs            0                       # number of cycles access was blocked
system.cpu0.icache.blocked_cycles::no_targets            0                       # number of cycles access was blocked
system.cpu0.icache.blocked::no_mshrs                0                       # number of cycles access was blocked
system.cpu0.icache.blocked::no_targets              0                       # number of cycles access was blocked
system.cpu0.icache.avg_blocked_cycles::no_mshrs          nan                       # average number of cycles each access was blocked
system.cpu0.icache.avg_blocked_cycles::no_targets          nan                       # average number of cycles each access was blocked
system.cpu0.icache.writebacks::.writebacks           40                       # number of writebacks
system.cpu0.icache.writebacks::total               40                       # number of writebacks
system.cpu0.icache.demand_mshr_misses::.cpu0.inst          453                       # number of demand (read+write) MSHR misses
system.cpu0.icache.demand_mshr_misses::total          453                       # number of demand (read+write) MSHR misses
system.cpu0.icache.overall_mshr_misses::.cpu0.inst          453                       # number of overall MSHR misses
system.cpu0.icache.overall_mshr_misses::total          453                       # number of overall MSHR misses
system.cpu0.icache.demand_mshr_miss_latency::.cpu0.inst     37221408                       # number of demand (read+write) MSHR miss cycles
system.cpu0.icache.demand_mshr_miss_latency::total     37221408                       # number of demand (read+write) MSHR miss cycles
system.cpu0.icache.overall_mshr_miss_latency::.cpu0.inst     37221408                       # number of overall MSHR miss cycles
system.cpu0.icache.overall_mshr_miss_latency::total     37221408                       # number of overall MSHR miss cycles
system.cpu0.icache.demand_mshr_miss_rate::.cpu0.inst     0.000000                       # mshr miss rate for demand accesses
system.cpu0.icache.demand_mshr_miss_rate::total     0.000000                       # mshr miss rate for demand accesses
system.cpu0.icache.overall_mshr_miss_rate::.cpu0.inst     0.000000                       # mshr miss rate for overall accesses
system.cpu0.icache.overall_mshr_miss_rate::total     0.000000                       # mshr miss rate for overall accesses
system.cpu0.icache.demand_avg_mshr_miss_latency::.cpu0.inst 82166.463576                       # average overall mshr miss latency
system.cpu0.icache.demand_avg_mshr_miss_latency::total 82166.463576                       # average overall mshr miss latency
system.cpu0.icache.overall_avg_mshr_miss_latency::.cpu0.inst 82166.463576                       # average overall mshr miss latency
system.cpu0.icache.overall_avg_mshr_miss_latency::total 82166.463576                       # average overall mshr miss latency
system.cpu0.icache.replacements                    40                       # number of replacements
system.cpu0.icache.ReadReq_hits::.cpu0.inst   1300001096                       # number of ReadReq hits
system.cpu0.icache.ReadReq_hits::total     1300001096                       # number of ReadReq hits
system.cpu0.icache.ReadReq_misses::.cpu0.inst          453                       # number of ReadReq misses
system.cpu0.icache.ReadReq_misses::total          453                       # number of ReadReq misses
system.cpu0.icache.ReadReq_miss_latency::.cpu0.inst     37523106                       # number of ReadReq miss cycles
system.cpu0.icache.ReadReq_miss_latency::total     37523106                       # number of ReadReq miss cycles
system.cpu0.icache.ReadReq_accesses::.cpu0.inst   1300001549                       # number of ReadReq accesses(hits+misses)
system.cpu0.icache.ReadReq_accesses::total   1300001549                       # number of ReadReq accesses(hits+misses)
system.cpu0.icache.ReadReq_miss_rate::.cpu0.inst     0.000000                       # miss rate for ReadReq accesses
system.cpu0.icache.ReadReq_miss_rate::total     0.000000                       # miss rate for ReadReq accesses
system.cpu0.icache.ReadReq_avg_miss_latency::.cpu0.inst 82832.463576                       # average ReadReq miss latency
system.cpu0.icache.ReadReq_avg_miss_latency::total 82832.463576                       # average ReadReq miss latency
system.cpu0.icache.ReadReq_mshr_misses::.cpu0.inst          453                       # number of ReadReq MSHR misses
system.cpu0.icache.ReadReq_mshr_misses::total          453                       # number of ReadReq MSHR misses
system.cpu0.icache.ReadReq_mshr_miss_latency::.cpu0.inst     37221408                       # number of ReadReq MSHR miss cycles
system.cpu0.icache.ReadReq_mshr_miss_latency::total     37221408                       # number of ReadReq MSHR miss cycles
system.cpu0.icache.ReadReq_mshr_miss_rate::.cpu0.inst     0.000000                       # mshr miss rate for ReadReq accesses
system.cpu0.icache.ReadReq_mshr_miss_rate::total     0.000000                       # mshr miss rate for ReadReq accesses
system.cpu0.icache.ReadReq_avg_mshr_miss_latency::.cpu0.inst 82166.463576                       # average ReadReq mshr miss latency
system.cpu0.icache.ReadReq_avg_mshr_miss_latency::total 82166.463576                       # average ReadReq mshr miss latency
system.cpu0.icache.tags.pwrStateResidencyTicks::UNDEFINED 1920143532735                       # Cumulative time (in ticks) in various power states
system.cpu0.icache.tags.tagsinuse          410.509051                       # Cycle average of tags in use
system.cpu0.icache.tags.total_refs         1300001549                       # Total number of references to valid blocks.
system.cpu0.icache.tags.sampled_refs              453                       # Sample count of references to valid blocks.
system.cpu0.icache.tags.avg_refs         2869760.593819                       # Average number of references to valid blocks.
system.cpu0.icache.tags.warmup_cycle            83250                       # Cycle when the warmup percentage was hit.
system.cpu0.icache.tags.occ_blocks::.cpu0.inst   410.509051                       # Average occupied blocks per requestor
system.cpu0.icache.tags.occ_percent::.cpu0.inst     0.801775                       # Average percentage of cache occupancy
system.cpu0.icache.tags.occ_percent::total     0.801775                       # Average percentage of cache occupancy
system.cpu0.icache.tags.occ_task_id_blocks::1024          413                       # Occupied blocks per task id
system.cpu0.icache.tags.age_task_id_blocks_1024::4          413                       # Occupied blocks per task id
system.cpu0.icache.tags.occ_task_id_percent::1024     0.806641                       # Percentage of cache occupancy per task id
system.cpu0.icache.tags.tag_accesses      10400012845                       # Number of tag accesses
system.cpu0.icache.tags.data_accesses     10400012845                       # Number of data accesses
system.cpu0.icache.tags.repl_invalid                0                       # Number of initial replacements
system.cpu0.icache.tags.repl_valid_tag              0                       # Number of local replacements
system.cpu0.icache.tags.repl_valid_data             0                       # Number of global replacements
system.cpu0.dtb.walker.pwrStateResidencyTicks::UNDEFINED 1920143532735                       # Cumulative time (in ticks) in various power states
system.cpu0.interrupts.clk_domain.clock          5328                       # Clock period in ticks
system.cpu0.itb_walker_cache.pwrStateResidencyTicks::UNDEFINED 1920143532735                       # Cumulative time (in ticks) in various power states
system.cpu0.itb_walker_cache.blocked_cycles::no_mshrs            0                       # number of cycles access was blocked
system.cpu0.itb_walker_cache.blocked_cycles::no_targets            0                       # number of cycles access was blocked
system.cpu0.itb_walker_cache.blocked::no_mshrs            0                       # number of cycles access was blocked
system.cpu0.itb_walker_cache.blocked::no_targets            0                       # number of cycles access was blocked
system.cpu0.itb_walker_cache.avg_blocked_cycles::no_mshrs          nan                       # average number of cycles each access was blocked
system.cpu0.itb_walker_cache.avg_blocked_cycles::no_targets          nan                       # average number of cycles each access was blocked
system.cpu0.itb_walker_cache.replacements            0                       # number of replacements
system.cpu0.itb_walker_cache.tags.pwrStateResidencyTicks::UNDEFINED 1920143532735                       # Cumulative time (in ticks) in various power states
system.cpu0.itb_walker_cache.tags.tagsinuse            0                       # Cycle average of tags in use
system.cpu0.itb_walker_cache.tags.total_refs            0                       # Total number of references to valid blocks.
system.cpu0.itb_walker_cache.tags.sampled_refs            0                       # Sample count of references to valid blocks.
system.cpu0.itb_walker_cache.tags.avg_refs          nan                       # Average number of references to valid blocks.
system.cpu0.itb_walker_cache.tags.warmup_cycle            0                       # Cycle when the warmup percentage was hit.
system.cpu0.itb_walker_cache.tags.tag_accesses            0                       # Number of tag accesses
system.cpu0.itb_walker_cache.tags.data_accesses            0                       # Number of data accesses
system.cpu0.itb_walker_cache.tags.repl_invalid            0                       # Number of initial replacements
system.cpu0.itb_walker_cache.tags.repl_valid_tag            0                       # Number of local replacements
system.cpu0.itb_walker_cache.tags.repl_valid_data            0                       # Number of global replacements
system.cpu0.itb.walker.pwrStateResidencyTicks::UNDEFINED 1920143532735                       # Cumulative time (in ticks) in various power states
system.cpu0.dtb_walker_cache.pwrStateResidencyTicks::UNDEFINED 1920143532735                       # Cumulative time (in ticks) in various power states
system.cpu0.dtb_walker_cache.blocked_cycles::no_mshrs            0                       # number of cycles access was blocked
system.cpu0.dtb_walker_cache.blocked_cycles::no_targets            0                       # number of cycles access was blocked
system.cpu0.dtb_walker_cache.blocked::no_mshrs            0                       # number of cycles access was blocked
system.cpu0.dtb_walker_cache.blocked::no_targets            0                       # number of cycles access was blocked
system.cpu0.dtb_walker_cache.avg_blocked_cycles::no_mshrs          nan                       # average number of cycles each access was blocked
system.cpu0.dtb_walker_cache.avg_blocked_cycles::no_targets          nan                       # average number of cycles each access was blocked
system.cpu0.dtb_walker_cache.replacements            0                       # number of replacements
system.cpu0.dtb_walker_cache.tags.pwrStateResidencyTicks::UNDEFINED 1920143532735                       # Cumulative time (in ticks) in various power states
system.cpu0.dtb_walker_cache.tags.tagsinuse            0                       # Cycle average of tags in use
system.cpu0.dtb_walker_cache.tags.total_refs            0                       # Total number of references to valid blocks.
system.cpu0.dtb_walker_cache.tags.sampled_refs            0                       # Sample count of references to valid blocks.
system.cpu0.dtb_walker_cache.tags.avg_refs          nan                       # Average number of references to valid blocks.
system.cpu0.dtb_walker_cache.tags.warmup_cycle            0                       # Cycle when the warmup percentage was hit.
system.cpu0.dtb_walker_cache.tags.tag_accesses            0                       # Number of tag accesses
system.cpu0.dtb_walker_cache.tags.data_accesses            0                       # Number of data accesses
system.cpu0.dtb_walker_cache.tags.repl_invalid            0                       # Number of initial replacements
system.cpu0.dtb_walker_cache.tags.repl_valid_tag            0                       # Number of local replacements
system.cpu0.dtb_walker_cache.tags.repl_valid_data            0                       # Number of global replacements
system.cpu0.dcache.pwrStateResidencyTicks::UNDEFINED 1920143532735                       # Cumulative time (in ticks) in various power states
system.cpu0.dcache.demand_hits::.cpu0.data    587487306                       # number of demand (read+write) hits
system.cpu0.dcache.demand_hits::total       587487306                       # number of demand (read+write) hits
system.cpu0.dcache.overall_hits::.cpu0.data    587487306                       # number of overall hits
system.cpu0.dcache.overall_hits::total      587487306                       # number of overall hits
system.cpu0.dcache.demand_misses::.cpu0.data     12503021                       # number of demand (read+write) misses
system.cpu0.dcache.demand_misses::total      12503021                       # number of demand (read+write) misses
system.cpu0.dcache.overall_misses::.cpu0.data     12503021                       # number of overall misses
system.cpu0.dcache.overall_misses::total     12503021                       # number of overall misses
system.cpu0.dcache.demand_miss_latency::.cpu0.data 663038792172                       # number of demand (read+write) miss cycles
system.cpu0.dcache.demand_miss_latency::total 663038792172                       # number of demand (read+write) miss cycles
system.cpu0.dcache.overall_miss_latency::.cpu0.data 663038792172                       # number of overall miss cycles
system.cpu0.dcache.overall_miss_latency::total 663038792172                       # number of overall miss cycles
system.cpu0.dcache.demand_accesses::.cpu0.data    599990327                       # number of demand (read+write) accesses
system.cpu0.dcache.demand_accesses::total    599990327                       # number of demand (read+write) accesses
system.cpu0.dcache.overall_accesses::.cpu0.data    599990327                       # number of overall (read+write) accesses
system.cpu0.dcache.overall_accesses::total    599990327                       # number of overall (read+write) accesses
system.cpu0.dcache.demand_miss_rate::.cpu0.data     0.020839                       # miss rate for demand accesses
system.cpu0.dcache.demand_miss_rate::total     0.020839                       # miss rate for demand accesses
system.cpu0.dcache.overall_miss_rate::.cpu0.data     0.020839                       # miss rate for overall accesses
system.cpu0.dcache.overall_miss_rate::total     0.020839                       # miss rate for overall accesses
system.cpu0.dcache.demand_avg_miss_latency::.cpu0.data 53030.287014                       # average overall miss latency
system.cpu0.dcache.demand_avg_miss_latency::total 53030.287014                       # average overall miss latency
system.cpu0.dcache.overall_avg_miss_latency::.cpu0.data 53030.287014                       # average overall miss latency
system.cpu0.dcache.overall_avg_miss_latency::total 53030.287014                       # average overall miss latency
system.cpu0.dcache.blocked_cycles::no_mshrs            0                       # number of cycles access was blocked
system.cpu0.dcache.blocked_cycles::no_targets            0                       # number of cycles access was blocked
system.cpu0.dcache.blocked::no_mshrs                0                       # number of cycles access was blocked
system.cpu0.dcache.blocked::no_targets              0                       # number of cycles access was blocked
system.cpu0.dcache.avg_blocked_cycles::no_mshrs          nan                       # average number of cycles each access was blocked
system.cpu0.dcache.avg_blocked_cycles::no_targets          nan                       # average number of cycles each access was blocked
system.cpu0.dcache.writebacks::.writebacks         2109                       # number of writebacks
system.cpu0.dcache.writebacks::total             2109                       # number of writebacks
system.cpu0.dcache.demand_mshr_misses::.cpu0.data     12503021                       # number of demand (read+write) MSHR misses
system.cpu0.dcache.demand_mshr_misses::total     12503021                       # number of demand (read+write) MSHR misses
system.cpu0.dcache.overall_mshr_misses::.cpu0.data     12503021                       # number of overall MSHR misses
system.cpu0.dcache.overall_mshr_misses::total     12503021                       # number of overall MSHR misses
system.cpu0.dcache.demand_mshr_miss_latency::.cpu0.data 654711780186                       # number of demand (read+write) MSHR miss cycles
system.cpu0.dcache.demand_mshr_miss_latency::total 654711780186                       # number of demand (read+write) MSHR miss cycles
system.cpu0.dcache.overall_mshr_miss_latency::.cpu0.data 654711780186                       # number of overall MSHR miss cycles
system.cpu0.dcache.overall_mshr_miss_latency::total 654711780186                       # number of overall MSHR miss cycles
system.cpu0.dcache.demand_mshr_miss_rate::.cpu0.data     0.020839                       # mshr miss rate for demand accesses
system.cpu0.dcache.demand_mshr_miss_rate::total     0.020839                       # mshr miss rate for demand accesses
system.cpu0.dcache.overall_mshr_miss_rate::.cpu0.data     0.020839                       # mshr miss rate for overall accesses
system.cpu0.dcache.overall_mshr_miss_rate::total     0.020839                       # mshr miss rate for overall accesses
system.cpu0.dcache.demand_avg_mshr_miss_latency::.cpu0.data 52364.287014                       # average overall mshr miss latency
system.cpu0.dcache.demand_avg_mshr_miss_latency::total 52364.287014                       # average overall mshr miss latency
system.cpu0.dcache.overall_avg_mshr_miss_latency::.cpu0.data 52364.287014                       # average overall mshr miss latency
system.cpu0.dcache.overall_avg_mshr_miss_latency::total 52364.287014                       # average overall mshr miss latency
system.cpu0.dcache.replacements              12503013                       # number of replacements
system.cpu0.dcache.ReadReq_hits::.cpu0.data    387490491                       # number of ReadReq hits
system.cpu0.dcache.ReadReq_hits::total      387490491                       # number of ReadReq hits
system.cpu0.dcache.ReadReq_misses::.cpu0.data     12501942                       # number of ReadReq misses
system.cpu0.dcache.ReadReq_misses::total     12501942                       # number of ReadReq misses
system.cpu0.dcache.ReadReq_miss_latency::.cpu0.data 662995193814                       # number of ReadReq miss cycles
system.cpu0.dcache.ReadReq_miss_latency::total 662995193814                       # number of ReadReq miss cycles
system.cpu0.dcache.ReadReq_accesses::.cpu0.data    399992433                       # number of ReadReq accesses(hits+misses)
system.cpu0.dcache.ReadReq_accesses::total    399992433                       # number of ReadReq accesses(hits+misses)
system.cpu0.dcache.ReadReq_miss_rate::.cpu0.data     0.031255                       # miss rate for ReadReq accesses
system.cpu0.dcache.ReadReq_miss_rate::total     0.031255                       # miss rate for ReadReq accesses
system.cpu0.dcache.ReadReq_avg_miss_latency::.cpu0.data 53031.376550                       # average ReadReq miss latency
system.cpu0.dcache.ReadReq_avg_miss_latency::total 53031.376550                       # average ReadReq miss latency
system.cpu0.dcache.ReadReq_mshr_misses::.cpu0.data     12501942                       # number of ReadReq MSHR misses
system.cpu0.dcache.ReadReq_mshr_misses::total     12501942                       # number of ReadReq MSHR misses
system.cpu0.dcache.ReadReq_mshr_miss_latency::.cpu0.data 654668900442                       # number of ReadReq MSHR miss cycles
system.cpu0.dcache.ReadReq_mshr_miss_latency::total 654668900442                       # number of ReadReq MSHR miss cycles
system.cpu0.dcache.ReadReq_mshr_miss_rate::.cpu0.data     0.031255                       # mshr miss rate for ReadReq accesses
system.cpu0.dcache.ReadReq_mshr_miss_rate::total     0.031255                       # mshr miss rate for ReadReq accesses
system.cpu0.dcache.ReadReq_avg_mshr_miss_latency::.cpu0.data 52365.376550                       # average ReadReq mshr miss latency
system.cpu0.dcache.ReadReq_avg_mshr_miss_latency::total 52365.376550                       # average ReadReq mshr miss latency
system.cpu0.dcache.WriteReq_hits::.cpu0.data    199996815                       # number of WriteReq hits
system.cpu0.dcache.WriteReq_hits::total     199996815                       # number of WriteReq hits
system.cpu0.dcache.WriteReq_misses::.cpu0.data         1079                       # number of WriteReq misses
system.cpu0.dcache.WriteReq_misses::total         1079                       # number of WriteReq misses
system.cpu0.dcache.WriteReq_miss_latency::.cpu0.data     43598358                       # number of WriteReq miss cycles
system.cpu0.dcache.WriteReq_miss_latency::total     43598358                       # number of WriteReq miss cycles
system.cpu0.dcache.WriteReq_accesses::.cpu0.data    199997894                       # number of WriteReq accesses(hits+misses)
system.cpu0.dcache.WriteReq_accesses::total    199997894                       # number of WriteReq accesses(hits+misses)
system.cpu0.dcache.WriteReq_miss_rate::.cpu0.data     0.000005                       # miss rate for WriteReq accesses
system.cpu0.dcache.WriteReq_miss_rate::total     0.000005                       # miss rate for WriteReq accesses
system.cpu0.dcache.WriteReq_avg_miss_latency::.cpu0.data 40406.263207                       # average WriteReq miss latency
system.cpu0.dcache.WriteReq_avg_miss_latency::total 40406.263207                       # average WriteReq miss latency
system.cpu0.dcache.WriteReq_mshr_misses::.cpu0.data         1079                       # number of WriteReq MSHR misses
system.cpu0.dcache.WriteReq_mshr_misses::total         1079                       # number of WriteReq MSHR misses
system.cpu0.dcache.WriteReq_mshr_miss_latency::.cpu0.data     42879744                       # number of WriteReq MSHR miss cycles
system.cpu0.dcache.WriteReq_mshr_miss_latency::total     42879744                       # number of WriteReq MSHR miss cycles
system.cpu0.dcache.WriteReq_mshr_miss_rate::.cpu0.data     0.000005                       # mshr miss rate for WriteReq accesses
system.cpu0.dcache.WriteReq_mshr_miss_rate::total     0.000005                       # mshr miss rate for WriteReq accesses
system.cpu0.dcache.WriteReq_avg_mshr_miss_latency::.cpu0.data 39740.263207                       # average WriteReq mshr miss latency
system.cpu0.dcache.WriteReq_avg_mshr_miss_latency::total 39740.263207                       # average WriteReq mshr miss latency
system.cpu0.dcache.tags.pwrStateResidencyTicks::UNDEFINED 1920143532735                       # Cumulative time (in ticks) in various power states
system.cpu0.dcache.tags.tagsinuse            7.999997                       # Cycle average of tags in use
system.cpu0.dcache.tags.total_refs          599990327                       # Total number of references to valid blocks.
system.cpu0.dcache.tags.sampled_refs         12503021                       # Sample count of references to valid blocks.
system.cpu0.dcache.tags.avg_refs            47.987629                       # Average number of references to valid blocks.
system.cpu0.dcache.tags.warmup_cycle           165168                       # Cycle when the warmup percentage was hit.
system.cpu0.dcache.tags.occ_blocks::.cpu0.data     7.999997                       # Average occupied blocks per requestor
system.cpu0.dcache.tags.occ_percent::.cpu0.data     1.000000                       # Average percentage of cache occupancy
system.cpu0.dcache.tags.occ_percent::total     1.000000                       # Average percentage of cache occupancy
system.cpu0.dcache.tags.occ_task_id_blocks::1024            8                       # Occupied blocks per task id
system.cpu0.dcache.tags.age_task_id_blocks_1024::0            7                       # Occupied blocks per task id
system.cpu0.dcache.tags.age_task_id_blocks_1024::4            1                       # Occupied blocks per task id
system.cpu0.dcache.tags.occ_task_id_percent::1024            1                       # Percentage of cache occupancy per task id
system.cpu0.dcache.tags.tag_accesses       4812425637                       # Number of tag accesses
system.cpu0.dcache.tags.data_accesses      4812425637                       # Number of data accesses
system.cpu0.dcache.tags.repl_invalid                0                       # Number of initial replacements
system.cpu0.dcache.tags.repl_valid_tag              0                       # Number of local replacements
system.cpu0.dcache.tags.repl_valid_data             0                       # Number of global replacements
system.cpu1.numPwrStateTransitions                  1                       # Number of power state transitions
system.cpu1.pwrStateResidencyTicks::ON   1920143532735                       # Cumulative time (in ticks) in various power states
system.cpu1.icache.pwrStateResidencyTicks::UNDEFINED 1920143532735                       # Cumulative time (in ticks) in various power states
system.cpu1.icache.demand_hits::.cpu1.inst   1250539753                       # number of demand (read+write) hits
system.cpu1.icache.demand_hits::total      1250539753                       # number of demand (read+write) hits
system.cpu1.icache.overall_hits::.cpu1.inst   1250539753                       # number of overall hits
system.cpu1.icache.overall_hits::total     1250539753                       # number of overall hits
system.cpu1.icache.demand_misses::.cpu1.inst        16910                       # number of demand (read+write) misses
system.cpu1.icache.demand_misses::total         16910                       # number of demand (read+write) misses
system.cpu1.icache.overall_misses::.cpu1.inst        16910                       # number of overall misses
system.cpu1.icache.overall_misses::total        16910                       # number of overall misses
system.cpu1.icache.demand_miss_latency::.cpu1.inst   1020128184                       # number of demand (read+write) miss cycles
system.cpu1.icache.demand_miss_latency::total   1020128184                       # number of demand (read+write) miss cycles
system.cpu1.icache.overall_miss_latency::.cpu1.inst   1020128184                       # number of overall miss cycles
system.cpu1.icache.overall_miss_latency::total   1020128184                       # number of overall miss cycles
system.cpu1.icache.demand_accesses::.cpu1.inst   1250556663                       # number of demand (read+write) accesses
system.cpu1.icache.demand_accesses::total   1250556663                       # number of demand (read+write) accesses
system.cpu1.icache.overall_accesses::.cpu1.inst   1250556663                       # number of overall (read+write) accesses
system.cpu1.icache.overall_accesses::total   1250556663                       # number of overall (read+write) accesses
system.cpu1.icache.demand_miss_rate::.cpu1.inst     0.000014                       # miss rate for demand accesses
system.cpu1.icache.demand_miss_rate::total     0.000014                       # miss rate for demand accesses
system.cpu1.icache.overall_miss_rate::.cpu1.inst     0.000014                       # miss rate for overall accesses
system.cpu1.icache.overall_miss_rate::total     0.000014                       # miss rate for overall accesses
system.cpu1.icache.demand_avg_miss_latency::.cpu1.inst 60326.918037                       # average overall miss latency
system.cpu1.icache.demand_avg_miss_latency::total 60326.918037                       # average overall miss latency
system.cpu1.icache.overall_avg_miss_latency::.cpu1.inst 60326.918037                       # average overall miss latency
system.cpu1.icache.overall_avg_miss_latency::total 60326.918037                       # average overall miss latency
system.cpu1.icache.blocked_cycles::no_mshrs            0                       # number of cycles access was blocked
system.cpu1.icache.blocked_cycles::no_targets            0                       # number of cycles access was blocked
system.cpu1.icache.blocked::no_mshrs                0                       # number of cycles access was blocked
system.cpu1.icache.blocked::no_targets              0                       # number of cycles access was blocked
system.cpu1.icache.avg_blocked_cycles::no_mshrs          nan                       # average number of cycles each access was blocked
system.cpu1.icache.avg_blocked_cycles::no_targets          nan                       # average number of cycles each access was blocked
system.cpu1.icache.writebacks::.writebacks        16398                       # number of writebacks
system.cpu1.icache.writebacks::total            16398                       # number of writebacks
system.cpu1.icache.demand_mshr_misses::.cpu1.inst        16910                       # number of demand (read+write) MSHR misses
system.cpu1.icache.demand_mshr_misses::total        16910                       # number of demand (read+write) MSHR misses
system.cpu1.icache.overall_mshr_misses::.cpu1.inst        16910                       # number of overall MSHR misses
system.cpu1.icache.overall_mshr_misses::total        16910                       # number of overall MSHR misses
system.cpu1.icache.demand_mshr_miss_latency::.cpu1.inst   1008866124                       # number of demand (read+write) MSHR miss cycles
system.cpu1.icache.demand_mshr_miss_latency::total   1008866124                       # number of demand (read+write) MSHR miss cycles
system.cpu1.icache.overall_mshr_miss_latency::.cpu1.inst   1008866124                       # number of overall MSHR miss cycles
system.cpu1.icache.overall_mshr_miss_latency::total   1008866124                       # number of overall MSHR miss cycles
system.cpu1.icache.demand_mshr_miss_rate::.cpu1.inst     0.000014                       # mshr miss rate for demand accesses
system.cpu1.icache.demand_mshr_miss_rate::total     0.000014                       # mshr miss rate for demand accesses
system.cpu1.icache.overall_mshr_miss_rate::.cpu1.inst     0.000014                       # mshr miss rate for overall accesses
system.cpu1.icache.overall_mshr_miss_rate::total     0.000014                       # mshr miss rate for overall accesses
system.cpu1.icache.demand_avg_mshr_miss_latency::.cpu1.inst 59660.918037                       # average overall mshr miss latency
system.cpu1.icache.demand_avg_mshr_miss_latency::total 59660.918037                       # average overall mshr miss latency
system.cpu1.icache.overall_avg_mshr_miss_latency::.cpu1.inst 59660.918037                       # average overall mshr miss latency
system.cpu1.icache.overall_avg_mshr_miss_latency::total 59660.918037                       # average overall mshr miss latency
system.cpu1.icache.replacements                 16398                       # number of replacements
system.cpu1.icache.ReadReq_hits::.cpu1.inst   1250539753                       # number of ReadReq hits
system.cpu1.icache.ReadReq_hits::total     1250539753                       # number of ReadReq hits
system.cpu1.icache.ReadReq_misses::.cpu1.inst        16910                       # number of ReadReq misses
system.cpu1.icache.ReadReq_misses::total        16910                       # number of ReadReq misses
system.cpu1.icache.ReadReq_miss_latency::.cpu1.inst   1020128184                       # number of ReadReq miss cycles
system.cpu1.icache.ReadReq_miss_latency::total   1020128184                       # number of ReadReq miss cycles
system.cpu1.icache.ReadReq_accesses::.cpu1.inst   1250556663                       # number of ReadReq accesses(hits+misses)
system.cpu1.icache.ReadReq_accesses::total   1250556663                       # number of ReadReq accesses(hits+misses)
system.cpu1.icache.ReadReq_miss_rate::.cpu1.inst     0.000014                       # miss rate for ReadReq accesses
system.cpu1.icache.ReadReq_miss_rate::total     0.000014                       # miss rate for ReadReq accesses
system.cpu1.icache.ReadReq_avg_miss_latency::.cpu1.inst 60326.918037                       # average ReadReq miss latency
system.cpu1.icache.ReadReq_avg_miss_latency::total 60326.918037                       # average ReadReq miss latency
system.cpu1.icache.ReadReq_mshr_misses::.cpu1.inst        16910                       # number of ReadReq MSHR misses
system.cpu1.icache.ReadReq_mshr_misses::total        16910                       # number of ReadReq MSHR misses
system.cpu1.icache.ReadReq_mshr_miss_latency::.cpu1.inst   1008866124                       # number of ReadReq MSHR miss cycles
system.cpu1.icache.ReadReq_mshr_miss_latency::total   1008866124                       # number of ReadReq MSHR miss cycles
system.cpu1.icache.ReadReq_mshr_miss_rate::.cpu1.inst     0.000014                       # mshr miss rate for ReadReq accesses
system.cpu1.icache.ReadReq_mshr_miss_rate::total     0.000014                       # mshr miss rate for ReadReq accesses
system.cpu1.icache.ReadReq_avg_mshr_miss_latency::.cpu1.inst 59660.918037                       # average ReadReq mshr miss latency
system.cpu1.icache.ReadReq_avg_mshr_miss_latency::total 59660.918037                       # average ReadReq mshr miss latency
system.cpu1.icache.tags.pwrStateResidencyTicks::UNDEFINED 1920143532735                       # Cumulative time (in ticks) in various power states
system.cpu1.icache.tags.tagsinuse          511.985875                       # Cycle average of tags in use
system.cpu1.icache.tags.total_refs         1250556663                       # Total number of references to valid blocks.
system.cpu1.icache.tags.sampled_refs            16910                       # Sample count of references to valid blocks.
system.cpu1.icache.tags.avg_refs         73953.676109                       # Average number of references to valid blocks.
system.cpu1.icache.tags.warmup_cycle            88245                       # Cycle when the warmup percentage was hit.
system.cpu1.icache.tags.occ_blocks::.cpu1.inst   511.985875                       # Average occupied blocks per requestor
system.cpu1.icache.tags.occ_percent::.cpu1.inst     0.999972                       # Average percentage of cache occupancy
system.cpu1.icache.tags.occ_percent::total     0.999972                       # Average percentage of cache occupancy
system.cpu1.icache.tags.occ_task_id_blocks::1024          512                       # Occupied blocks per task id
system.cpu1.icache.tags.age_task_id_blocks_1024::1            2                       # Occupied blocks per task id
system.cpu1.icache.tags.age_task_id_blocks_1024::3           10                       # Occupied blocks per task id
system.cpu1.icache.tags.age_task_id_blocks_1024::4          500                       # Occupied blocks per task id
system.cpu1.icache.tags.occ_task_id_percent::1024            1                       # Percentage of cache occupancy per task id
system.cpu1.icache.tags.tag_accesses      10004470214                       # Number of tag accesses
system.cpu1.icache.tags.data_accesses     10004470214                       # Number of data accesses
system.cpu1.icache.tags.repl_invalid                0                       # Number of initial replacements
system.cpu1.icache.tags.repl_valid_tag              0                       # Number of local replacements
system.cpu1.icache.tags.repl_valid_data             0                       # Number of global replacements
system.cpu1.dtb.walker.pwrStateResidencyTicks::UNDEFINED 1920143532735                       # Cumulative time (in ticks) in various power states
system.cpu1.interrupts.clk_domain.clock          5328                       # Clock period in ticks
system.cpu1.itb_walker_cache.pwrStateResidencyTicks::UNDEFINED 1920143532735                       # Cumulative time (in ticks) in various power states
system.cpu1.itb_walker_cache.blocked_cycles::no_mshrs            0                       # number of cycles access was blocked
system.cpu1.itb_walker_cache.blocked_cycles::no_targets            0                       # number of cycles access was blocked
system.cpu1.itb_walker_cache.blocked::no_mshrs            0                       # number of cycles access was blocked
system.cpu1.itb_walker_cache.blocked::no_targets            0                       # number of cycles access was blocked
system.cpu1.itb_walker_cache.avg_blocked_cycles::no_mshrs          nan                       # average number of cycles each access was blocked
system.cpu1.itb_walker_cache.avg_blocked_cycles::no_targets          nan                       # average number of cycles each access was blocked
system.cpu1.itb_walker_cache.replacements            0                       # number of replacements
system.cpu1.itb_walker_cache.tags.pwrStateResidencyTicks::UNDEFINED 1920143532735                       # Cumulative time (in ticks) in various power states
system.cpu1.itb_walker_cache.tags.tagsinuse            0                       # Cycle average of tags in use
system.cpu1.itb_walker_cache.tags.total_refs            0                       # Total number of references to valid blocks.
system.cpu1.itb_walker_cache.tags.sampled_refs            0                       # Sample count of references to valid blocks.
system.cpu1.itb_walker_cache.tags.avg_refs          nan                       # Average number of references to valid blocks.
system.cpu1.itb_walker_cache.tags.warmup_cycle            0                       # Cycle when the warmup percentage was hit.
system.cpu1.itb_walker_cache.tags.tag_accesses            0                       # Number of tag accesses
system.cpu1.itb_walker_cache.tags.data_accesses            0                       # Number of data accesses
system.cpu1.itb_walker_cache.tags.repl_invalid            0                       # Number of initial replacements
system.cpu1.itb_walker_cache.tags.repl_valid_tag            0                       # Number of local replacements
system.cpu1.itb_walker_cache.tags.repl_valid_data            0                       # Number of global replacements
system.cpu1.itb.walker.pwrStateResidencyTicks::UNDEFINED 1920143532735                       # Cumulative time (in ticks) in various power states
system.cpu1.dtb_walker_cache.pwrStateResidencyTicks::UNDEFINED 1920143532735                       # Cumulative time (in ticks) in various power states
system.cpu1.dtb_walker_cache.blocked_cycles::no_mshrs            0                       # number of cycles access was blocked
system.cpu1.dtb_walker_cache.blocked_cycles::no_targets            0                       # number of cycles access was blocked
system.cpu1.dtb_walker_cache.blocked::no_mshrs            0                       # number of cycles access was blocked
system.cpu1.dtb_walker_cache.blocked::no_targets            0                       # number of cycles access was blocked
system.cpu1.dtb_walker_cache.avg_blocked_cycles::no_mshrs          nan                       # average number of cycles each access was blocked
system.cpu1.dtb_walker_cache.avg_blocked_cycles::no_targets          nan                       # average number of cycles each access was blocked
system.cpu1.dtb_walker_cache.replacements            0                       # number of replacements
system.cpu1.dtb_walker_cache.tags.pwrStateResidencyTicks::UNDEFINED 1920143532735                       # Cumulative time (in ticks) in various power states
system.cpu1.dtb_walker_cache.tags.tagsinuse            0                       # Cycle average of tags in use
system.cpu1.dtb_walker_cache.tags.total_refs            0                       # Total number of references to valid blocks.
system.cpu1.dtb_walker_cache.tags.sampled_refs            0                       # Sample count of references to valid blocks.
system.cpu1.dtb_walker_cache.tags.avg_refs          nan                       # Average number of references to valid blocks.
system.cpu1.dtb_walker_cache.tags.warmup_cycle            0                       # Cycle when the warmup percentage was hit.
system.cpu1.dtb_walker_cache.tags.tag_accesses            0                       # Number of tag accesses
system.cpu1.dtb_walker_cache.tags.data_accesses            0                       # Number of data accesses
system.cpu1.dtb_walker_cache.tags.repl_invalid            0                       # Number of initial replacements
system.cpu1.dtb_walker_cache.tags.repl_valid_tag            0                       # Number of local replacements
system.cpu1.dtb_walker_cache.tags.repl_valid_data            0                       # Number of global replacements
system.cpu1.dcache.pwrStateResidencyTicks::UNDEFINED 1920143532735                       # Cumulative time (in ticks) in various power states
system.cpu1.dcache.demand_hits::.cpu1.data    219581080                       # number of demand (read+write) hits
system.cpu1.dcache.demand_hits::total       219581080                       # number of demand (read+write) hits
system.cpu1.dcache.overall_hits::.cpu1.data    219612257                       # number of overall hits
system.cpu1.dcache.overall_hits::total      219612257                       # number of overall hits
system.cpu1.dcache.demand_misses::.cpu1.data     86300822                       # number of demand (read+write) misses
system.cpu1.dcache.demand_misses::total      86300822                       # number of demand (read+write) misses
system.cpu1.dcache.overall_misses::.cpu1.data     86332337                       # number of overall misses
system.cpu1.dcache.overall_misses::total     86332337                       # number of overall misses
system.cpu1.dcache.demand_miss_latency::.cpu1.data 946355529501                       # number of demand (read+write) miss cycles
system.cpu1.dcache.demand_miss_latency::total 946355529501                       # number of demand (read+write) miss cycles
system.cpu1.dcache.overall_miss_latency::.cpu1.data 946355529501                       # number of overall miss cycles
system.cpu1.dcache.overall_miss_latency::total 946355529501                       # number of overall miss cycles
system.cpu1.dcache.demand_accesses::.cpu1.data    305881902                       # number of demand (read+write) accesses
system.cpu1.dcache.demand_accesses::total    305881902                       # number of demand (read+write) accesses
system.cpu1.dcache.overall_accesses::.cpu1.data    305944594                       # number of overall (read+write) accesses
system.cpu1.dcache.overall_accesses::total    305944594                       # number of overall (read+write) accesses
system.cpu1.dcache.demand_miss_rate::.cpu1.data     0.282138                       # miss rate for demand accesses
system.cpu1.dcache.demand_miss_rate::total     0.282138                       # miss rate for demand accesses
system.cpu1.dcache.overall_miss_rate::.cpu1.data     0.282183                       # miss rate for overall accesses
system.cpu1.dcache.overall_miss_rate::total     0.282183                       # miss rate for overall accesses
system.cpu1.dcache.demand_avg_miss_latency::.cpu1.data 10965.776543                       # average overall miss latency
system.cpu1.dcache.demand_avg_miss_latency::total 10965.776543                       # average overall miss latency
system.cpu1.dcache.overall_avg_miss_latency::.cpu1.data 10961.773565                       # average overall miss latency
system.cpu1.dcache.overall_avg_miss_latency::total 10961.773565                       # average overall miss latency
system.cpu1.dcache.blocked_cycles::no_mshrs            0                       # number of cycles access was blocked
system.cpu1.dcache.blocked_cycles::no_targets            0                       # number of cycles access was blocked
system.cpu1.dcache.blocked::no_mshrs                0                       # number of cycles access was blocked
system.cpu1.dcache.blocked::no_targets              0                       # number of cycles access was blocked
system.cpu1.dcache.avg_blocked_cycles::no_mshrs          nan                       # average number of cycles each access was blocked
system.cpu1.dcache.avg_blocked_cycles::no_targets          nan                       # average number of cycles each access was blocked
system.cpu1.dcache.writebacks::.writebacks     23582106                       # number of writebacks
system.cpu1.dcache.writebacks::total         23582106                       # number of writebacks
system.cpu1.dcache.demand_mshr_misses::.cpu1.data     86300822                       # number of demand (read+write) MSHR misses
system.cpu1.dcache.demand_mshr_misses::total     86300822                       # number of demand (read+write) MSHR misses
system.cpu1.dcache.overall_mshr_misses::.cpu1.data     86332170                       # number of overall MSHR misses
system.cpu1.dcache.overall_mshr_misses::total     86332170                       # number of overall MSHR misses
system.cpu1.dcache.demand_mshr_miss_latency::.cpu1.data 888879182715                       # number of demand (read+write) MSHR miss cycles
system.cpu1.dcache.demand_mshr_miss_latency::total 888879182715                       # number of demand (read+write) MSHR miss cycles
system.cpu1.dcache.overall_mshr_miss_latency::.cpu1.data 891510165099                       # number of overall MSHR miss cycles
system.cpu1.dcache.overall_mshr_miss_latency::total 891510165099                       # number of overall MSHR miss cycles
system.cpu1.dcache.demand_mshr_miss_rate::.cpu1.data     0.282138                       # mshr miss rate for demand accesses
system.cpu1.dcache.demand_mshr_miss_rate::total     0.282138                       # mshr miss rate for demand accesses
system.cpu1.dcache.overall_mshr_miss_rate::.cpu1.data     0.282182                       # mshr miss rate for overall accesses
system.cpu1.dcache.overall_mshr_miss_rate::total     0.282182                       # mshr miss rate for overall accesses
system.cpu1.dcache.demand_avg_mshr_miss_latency::.cpu1.data 10299.776550                       # average overall mshr miss latency
system.cpu1.dcache.demand_avg_mshr_miss_latency::total 10299.776550                       # average overall mshr miss latency
system.cpu1.dcache.overall_avg_mshr_miss_latency::.cpu1.data 10326.511717                       # average overall mshr miss latency
system.cpu1.dcache.overall_avg_mshr_miss_latency::total 10326.511717                       # average overall mshr miss latency
system.cpu1.dcache.replacements              86332161                       # number of replacements
system.cpu1.dcache.ReadReq_hits::.cpu1.data    153021009                       # number of ReadReq hits
system.cpu1.dcache.ReadReq_hits::total      153021009                       # number of ReadReq hits
system.cpu1.dcache.ReadReq_misses::.cpu1.data     79276917                       # number of ReadReq misses
system.cpu1.dcache.ReadReq_misses::total     79276917                       # number of ReadReq misses
system.cpu1.dcache.ReadReq_miss_latency::.cpu1.data 812700156330                       # number of ReadReq miss cycles
system.cpu1.dcache.ReadReq_miss_latency::total 812700156330                       # number of ReadReq miss cycles
system.cpu1.dcache.ReadReq_accesses::.cpu1.data    232297926                       # number of ReadReq accesses(hits+misses)
system.cpu1.dcache.ReadReq_accesses::total    232297926                       # number of ReadReq accesses(hits+misses)
system.cpu1.dcache.ReadReq_miss_rate::.cpu1.data     0.341273                       # miss rate for ReadReq accesses
system.cpu1.dcache.ReadReq_miss_rate::total     0.341273                       # miss rate for ReadReq accesses
system.cpu1.dcache.ReadReq_avg_miss_latency::.cpu1.data 10251.409705                       # average ReadReq miss latency
system.cpu1.dcache.ReadReq_avg_miss_latency::total 10251.409705                       # average ReadReq miss latency
system.cpu1.dcache.ReadReq_mshr_misses::.cpu1.data     79276917                       # number of ReadReq MSHR misses
system.cpu1.dcache.ReadReq_mshr_misses::total     79276917                       # number of ReadReq MSHR misses
system.cpu1.dcache.ReadReq_mshr_miss_latency::.cpu1.data 759901729608                       # number of ReadReq MSHR miss cycles
system.cpu1.dcache.ReadReq_mshr_miss_latency::total 759901729608                       # number of ReadReq MSHR miss cycles
system.cpu1.dcache.ReadReq_mshr_miss_rate::.cpu1.data     0.341273                       # mshr miss rate for ReadReq accesses
system.cpu1.dcache.ReadReq_mshr_miss_rate::total     0.341273                       # mshr miss rate for ReadReq accesses
system.cpu1.dcache.ReadReq_avg_mshr_miss_latency::.cpu1.data  9585.409705                       # average ReadReq mshr miss latency
system.cpu1.dcache.ReadReq_avg_mshr_miss_latency::total  9585.409705                       # average ReadReq mshr miss latency
system.cpu1.dcache.WriteReq_hits::.cpu1.data     66560071                       # number of WriteReq hits
[...]
system.mem_ctrls.wrQLenPdf::114                     0                       # What write queue length does an incoming req see
system.mem_ctrls.wrQLenPdf::115                     0                       # What write queue length does an incoming req see
system.mem_ctrls.wrQLenPdf::116                     0                       # What write queue length does an incoming req see
system.mem_ctrls.wrQLenPdf::117                     0                       # What write queue length does an incoming req see
system.mem_ctrls.wrQLenPdf::118                     0                       # What write queue length does an incoming req see
system.mem_ctrls.wrQLenPdf::119                     0                       # What write queue length does an incoming req see
system.mem_ctrls.wrQLenPdf::120                     0                       # What write queue length does an incoming req see
system.mem_ctrls.wrQLenPdf::121                     0                       # What write queue length does an incoming req see
system.mem_ctrls.wrQLenPdf::122                     0                       # What write queue length does an incoming req see
system.mem_ctrls.wrQLenPdf::123                     0                       # What write queue length does an incoming req see
system.mem_ctrls.wrQLenPdf::124                     0                       # What write queue length does an incoming req see
system.mem_ctrls.wrQLenPdf::125                     0                       # What write queue length does an incoming req see
system.mem_ctrls.wrQLenPdf::126                     0                       # What write queue length does an incoming req see
system.mem_ctrls.wrQLenPdf::127                     0                       # What write queue length does an incoming req see
system.mem_ctrls.bytesPerActivate::samples      8880346                       # Bytes accessed per row activation
system.mem_ctrls.bytesPerActivate::mean            64                       # Bytes accessed per row activation
system.mem_ctrls.bytesPerActivate::gmean    64.000000                       # Bytes accessed per row activation
system.mem_ctrls.bytesPerActivate::64-71      8880346    100.00%    100.00% # Bytes accessed per row activation
system.mem_ctrls.bytesPerActivate::total      8880346                       # Bytes accessed per row activation
system.mem_ctrls.rdPerTurnAround::samples        45344                       # Reads before turning the bus around for writes
system.mem_ctrls.rdPerTurnAround::mean     178.074850                       # Reads before turning the bus around for writes
system.mem_ctrls.rdPerTurnAround::gmean     87.196064                       # Reads before turning the bus around for writes
system.mem_ctrls.rdPerTurnAround::stdev   1141.594101                       # Reads before turning the bus around for writes
system.mem_ctrls.rdPerTurnAround::0-4095        45217     99.72%     99.72% # Reads before turning the bus around for writes
system.mem_ctrls.rdPerTurnAround::4096-8191          126      0.28%    100.00% # Reads before turning the bus around for writes
system.mem_ctrls.rdPerTurnAround::225280-229375            1      0.00%    100.00% # Reads before turning the bus around for writes
system.mem_ctrls.rdPerTurnAround::total         45344                       # Reads before turning the bus around for writes
system.mem_ctrls.wrPerTurnAround::samples        45344                       # Writes before turning the bus around for reads
system.mem_ctrls.wrPerTurnAround::mean      17.645995                       # Writes before turning the bus around for reads
system.mem_ctrls.wrPerTurnAround::gmean     17.629643                       # Writes before turning the bus around for reads
system.mem_ctrls.wrPerTurnAround::stdev      0.744215                       # Writes before turning the bus around for reads
system.mem_ctrls.wrPerTurnAround::16             6420     14.16%     14.16% # Writes before turning the bus around for reads
system.mem_ctrls.wrPerTurnAround::17             4163      9.18%     23.34% # Writes before turning the bus around for reads
system.mem_ctrls.wrPerTurnAround::18            33811     74.57%     97.90% # Writes before turning the bus around for reads
system.mem_ctrls.wrPerTurnAround::19              949      2.09%    100.00% # Writes before turning the bus around for reads
system.mem_ctrls.wrPerTurnAround::20                1      0.00%    100.00% # Writes before turning the bus around for reads
system.mem_ctrls.wrPerTurnAround::total         45344                       # Writes before turning the bus around for reads
system.mem_ctrls.bytesReadDRAM              517133184                       # Total number of bytes read from DRAM
system.mem_ctrls.bytesReadWrQ                   90048                       # Total number of bytes read from write queue
system.mem_ctrls.bytesWritten                51208960                       # Total number of bytes written to DRAM
system.mem_ctrls.bytesReadSys               517223232                       # Total read bytes from the system interface side
system.mem_ctrls.bytesWrittenSys             51212800                       # Total written bytes from the system interface side
system.mem_ctrls.avgRdBW                       269.32                       # Average DRAM read bandwidth in MiByte/s
system.mem_ctrls.avgWrBW                        26.67                       # Average achieved write bandwidth in MiByte/s
system.mem_ctrls.avgRdBWSys                    269.37                       # Average system read bandwidth in MiByte/s
system.mem_ctrls.avgWrBWSys                     26.67                       # Average system write bandwidth in MiByte/s
system.mem_ctrls.peakBW                      19207.00                       # Theoretical peak bandwidth in MiByte/s
system.mem_ctrls.busUtil                         1.54                       # Data bus utilization in percentage
system.mem_ctrls.busUtilRead                     1.40                       # Data bus utilization in percentage for reads
system.mem_ctrls.busUtilWrite                    0.14                       # Data bus utilization in percentage for writes
system.mem_ctrls.totGap                  1920143441826                       # Total gap between requests
system.mem_ctrls.avgGap                     216188.23                       # Average gap between requests
system.mem_ctrls.masterReadBytes::.cpu0.inst        28928                       # Per-master bytes read from memory
system.mem_ctrls.masterReadBytes::.cpu0.data    450516800                       # Per-master bytes read from memory
system.mem_ctrls.masterReadBytes::.cpu1.inst       716160                       # Per-master bytes read from memory
system.mem_ctrls.masterReadBytes::.cpu1.data     65871296                       # Per-master bytes read from memory
system.mem_ctrls.masterWriteBytes::.writebacks     51208960                       # Per-master bytes write to memory
system.mem_ctrls.masterReadRate::.cpu0.inst 15065.540417593545                       # Per-master bytes read from memory rate (Bytes/sec)
system.mem_ctrls.masterReadRate::.cpu0.data 234626626.770081162453                       # Per-master bytes read from memory rate (Bytes/sec)
system.mem_ctrls.masterReadRate::.cpu1.inst 372972.117860335798                       # Per-master bytes read from memory rate (Bytes/sec)
system.mem_ctrls.masterReadRate::.cpu1.data 34305402.110317617655                       # Per-master bytes read from memory rate (Bytes/sec)
system.mem_ctrls.masterWriteRate::.writebacks 26669339.623303759843                       # Per-master bytes write to memory rate (Bytes/sec)
system.mem_ctrls.masterReadAccesses::.cpu0.inst          452                       # Per-master read serviced memory accesses
system.mem_ctrls.masterReadAccesses::.cpu0.data      7039328                       # Per-master read serviced memory accesses
system.mem_ctrls.masterReadAccesses::.cpu1.inst        11190                       # Per-master read serviced memory accesses
system.mem_ctrls.masterReadAccesses::.cpu1.data      1030643                       # Per-master read serviced memory accesses
system.mem_ctrls.masterWriteAccesses::.writebacks       800200                       # Per-master write serviced memory accesses
system.mem_ctrls.masterReadTotalLat::.cpu0.inst     15949832                       # Per-master read total memory access latency
system.mem_ctrls.masterReadTotalLat::.cpu0.data 272426154852                       # Per-master read total memory access latency
system.mem_ctrls.masterReadTotalLat::.cpu1.inst    428925088                       # Per-master read total memory access latency
system.mem_ctrls.masterReadTotalLat::.cpu1.data  39468835320                       # Per-master read total memory access latency
system.mem_ctrls.masterWriteTotalLat::.writebacks 104905161574171                       # Per-master write total memory access latency
system.mem_ctrls.masterReadAvgLat::.cpu0.inst     35287.24                       # Per-master read average memory access latency
system.mem_ctrls.masterReadAvgLat::.cpu0.data     38700.59                       # Per-master read average memory access latency
system.mem_ctrls.masterReadAvgLat::.cpu1.inst     38331.11                       # Per-master read average memory access latency
system.mem_ctrls.masterReadAvgLat::.cpu1.data     38295.35                       # Per-master read average memory access latency
system.mem_ctrls.masterWriteAvgLat::.writebacks 131098677.30                       # Per-master write average memory access latency
system.mem_ctrls.pageHitRate                     0.00                       # Row buffer hit rate, read and write combined
system.mem_ctrls.rank1.actEnergy         6920348512.891261                       # Energy for activate commands per rank (pJ)
system.mem_ctrls.rank1.preEnergy         12217076797.748022                       # Energy for precharge commands per rank (pJ)
system.mem_ctrls.rank1.readEnergy        11075486056.795422                       # Energy for read commands per rank (pJ)
system.mem_ctrls.rank1.writeEnergy       943681376.399355                       # Energy for write commands per rank (pJ)
system.mem_ctrls.rank1.refreshEnergy     166678819786.964783                       # Energy for refresh commands per rank (pJ)
system.mem_ctrls.rank1.actBackEnergy     101629544958.805878                       # Energy for active background per rank (pJ)
system.mem_ctrls.rank1.preBackEnergy     556574351043.970337                       # Energy for precharge background per rank (pJ)
system.mem_ctrls.rank1.actPowerDownEnergy            0                       # Energy for active power-down per rank (pJ)
system.mem_ctrls.rank1.prePowerDownEnergy            0                       # Energy for precharge power-down per rank (pJ)
system.mem_ctrls.rank1.selfRefreshEnergy            0                       # Energy for self refresh per rank (pJ)
system.mem_ctrls.rank1.totalEnergy       856039308533.527466                       # Total energy per rank (pJ)
system.mem_ctrls.rank1.averagePower        445.820478                       # Core power per rank (mW)
system.mem_ctrls.rank1.totalIdleTime                0                       # Total Idle time Per DRAM Rank
system.mem_ctrls.rank1.memoryStateTime::IDLE 1645672906761                       # Time in different power states
system.mem_ctrls.rank1.memoryStateTime::REF  86316650000                       # Time in different power states
system.mem_ctrls.rank1.memoryStateTime::SREF            0                       # Time in different power states
system.mem_ctrls.rank1.memoryStateTime::PRE_PDN            0                       # Time in different power states
system.mem_ctrls.rank1.memoryStateTime::ACT 188153975974                       # Time in different power states
system.mem_ctrls.rank1.memoryStateTime::ACT_PDN            0                       # Time in different power states
system.mem_ctrls.rank0.actEnergy         6927449911.195212                       # Energy for activate commands per rank (pJ)
system.mem_ctrls.rank0.preEnergy         12229613497.061245                       # Energy for precharge commands per rank (pJ)
system.mem_ctrls.rank0.readEnergy        11087730373.108950                       # Energy for read commands per rank (pJ)
system.mem_ctrls.rank0.writeEnergy       943893691.439356                       # Energy for write commands per rank (pJ)
system.mem_ctrls.rank0.refreshEnergy     166678819786.964783                       # Energy for refresh commands per rank (pJ)
system.mem_ctrls.rank0.actBackEnergy     101692195832.425888                       # Energy for active background per rank (pJ)
system.mem_ctrls.rank0.preBackEnergy     556531099679.440430                       # Energy for precharge background per rank (pJ)
system.mem_ctrls.rank0.actPowerDownEnergy            0                       # Energy for active power-down per rank (pJ)
system.mem_ctrls.rank0.prePowerDownEnergy            0                       # Energy for precharge power-down per rank (pJ)
system.mem_ctrls.rank0.selfRefreshEnergy            0                       # Energy for self refresh per rank (pJ)
system.mem_ctrls.rank0.totalEnergy       856090802771.598755                       # Total energy per rank (pJ)
system.mem_ctrls.rank0.averagePower        445.847296                       # Core power per rank (mW)
system.mem_ctrls.rank0.totalIdleTime                0                       # Total Idle time Per DRAM Rank
system.mem_ctrls.rank0.memoryStateTime::IDLE 1645486998444                       # Time in different power states
system.mem_ctrls.rank0.memoryStateTime::REF  86316650000                       # Time in different power states
system.mem_ctrls.rank0.memoryStateTime::SREF            0                       # Time in different power states
system.mem_ctrls.rank0.memoryStateTime::PRE_PDN            0                       # Time in different power states
system.mem_ctrls.rank0.memoryStateTime::ACT 188339884291                       # Time in different power states
system.mem_ctrls.rank0.memoryStateTime::ACT_PDN            0                       # Time in different power states
system.cpu_clk_domain.clock                       333                       # Clock period in ticks
system.tol2bus.pwrStateResidencyTicks::UNDEFINED 1920143532735                       # Cumulative time (in ticks) in various power states
system.tol2bus.trans_dist::ReadResp          91827570                       # Transaction distribution
system.tol2bus.trans_dist::WritebackDirty     24384415                       # Transaction distribution
system.tol2bus.trans_dist::WritebackClean        16438                       # Transaction distribution
system.tol2bus.trans_dist::CleanEvict        82272037                       # Transaction distribution
system.tol2bus.trans_dist::ReadExReq          7024984                       # Transaction distribution
system.tol2bus.trans_dist::ReadExResp         7024983                       # Transaction distribution
system.tol2bus.trans_dist::ReadCleanReq         17363                       # Transaction distribution
system.tol2bus.trans_dist::ReadSharedReq     91810207                       # Transaction distribution
system.tol2bus.pkt_count_system.cpu0.icache.mem_side::system.l2.cpu_side          946                       # Packet count per connected master and slave (bytes)
system.tol2bus.pkt_count_system.cpu0.dcache.mem_side::system.l2.cpu_side     37509055                       # Packet count per connected master and slave (bytes)
system.tol2bus.pkt_count_system.cpu1.icache.mem_side::system.l2.cpu_side        50218                       # Packet count per connected master and slave (bytes)
system.tol2bus.pkt_count_system.cpu1.dcache.mem_side::system.l2.cpu_side    258996500                       # Packet count per connected master and slave (bytes)
system.tol2bus.pkt_count::total             296556719                       # Packet count per connected master and slave (bytes)
system.tol2bus.pkt_size_system.cpu0.icache.mem_side::system.l2.cpu_side        31552                       # Cumulative packet size per connected master and slave (bytes)
system.tol2bus.pkt_size_system.cpu0.dcache.mem_side::system.l2.cpu_side    800328320                       # Cumulative packet size per connected master and slave (bytes)
system.tol2bus.pkt_size_system.cpu1.icache.mem_side::system.l2.cpu_side      2131712                       # Cumulative packet size per connected master and slave (bytes)
system.tol2bus.pkt_size_system.cpu1.dcache.mem_side::system.l2.cpu_side   7034513600                       # Cumulative packet size per connected master and slave (bytes)
system.tol2bus.pkt_size::total             7837005184                       # Cumulative packet size per connected master and slave (bytes)
system.tol2bus.snoops                         7821278                       # Total snoops (count)
system.tol2bus.snoopTraffic                  51212800                       # Total snoop traffic (bytes)
system.tol2bus.snoop_fanout::samples        106673832                       # Request fanout histogram
system.tol2bus.snoop_fanout::mean            0.000027                       # Request fanout histogram
system.tol2bus.snoop_fanout::stdev           0.005228                       # Request fanout histogram
system.tol2bus.snoop_fanout::underflows             0      0.00%      0.00% # Request fanout histogram
system.tol2bus.snoop_fanout::0              106670916    100.00%    100.00% # Request fanout histogram
system.tol2bus.snoop_fanout::1                   2916      0.00%    100.00% # Request fanout histogram
system.tol2bus.snoop_fanout::2                      0      0.00%    100.00% # Request fanout histogram
system.tol2bus.snoop_fanout::3                      0      0.00%    100.00% # Request fanout histogram
system.tol2bus.snoop_fanout::4                      0      0.00%    100.00% # Request fanout histogram
system.tol2bus.snoop_fanout::5                      0      0.00%    100.00% # Request fanout histogram
system.tol2bus.snoop_fanout::6                      0      0.00%    100.00% # Request fanout histogram
system.tol2bus.snoop_fanout::7                      0      0.00%    100.00% # Request fanout histogram
system.tol2bus.snoop_fanout::8                      0      0.00%    100.00% # Request fanout histogram
system.tol2bus.snoop_fanout::overflows              0      0.00%    100.00% # Request fanout histogram
system.tol2bus.snoop_fanout::min_value              0                       # Request fanout histogram
system.tol2bus.snoop_fanout::max_value              1                       # Request fanout histogram
system.tol2bus.snoop_fanout::total          106673832                       # Request fanout histogram
system.tol2bus.reqLayer0.occupancy        81553522176                       # Layer occupancy (ticks)
system.tol2bus.reqLayer0.utilization              4.2                       # Layer utilization (%)
system.tol2bus.respLayer5.occupancy       86245906219                       # Layer occupancy (ticks)
system.tol2bus.respLayer5.utilization             4.5                       # Layer utilization (%)
system.tol2bus.respLayer4.occupancy          16893754                       # Layer occupancy (ticks)
system.tol2bus.respLayer4.utilization             0.0                       # Layer utilization (%)
system.tol2bus.respLayer1.occupancy       12525496171                       # Layer occupancy (ticks)
system.tol2bus.respLayer1.utilization             0.7                       # Layer utilization (%)
system.tol2bus.respLayer0.occupancy            452879                       # Layer occupancy (ticks)
system.tol2bus.respLayer0.utilization             0.0                       # Layer utilization (%)

---------- End Simulation Statistics   ----------
