
---------- Begin Simulation Statistics ----------
final_tick                               1829969577288                       # Number of ticks from beginning of simulation (restored from checkpoints and never reset)
host_inst_rate                                 714987                       # Simulator instruction rate (inst/s)
host_mem_usage                                8655860                       # Number of bytes of host memory used
host_op_rate                                  1358291                       # Simulator op (including micro ops) rate (op/s)
host_seconds                                  1415.43                       # Real time elapsed on the host
host_tick_rate                             1292872954                       # Simulator tick rate (ticks/s)
sim_freq                                 1000000000000                       # Frequency of simulated ticks
sim_insts                                  1012013274                       # Number of instructions simulated
sim_ops                                    1922563666                       # Number of ops (including micro ops) simulated
sim_seconds                                  1.829970                       # Number of seconds simulated
sim_ticks                                1829969577288                       # Number of ticks simulated
system.cpu0.Branches                        100005070                       # Number of branches fetched
system.cpu0.committedInsts                 1000000001                       # Number of instructions committed
system.cpu0.committedOps                   1900003052                       # Number of ops (including micro ops) committed
system.cpu0.dtb.rdAccesses                  399992433                       # TLB accesses on read requests
system.cpu0.dtb.rdMisses                       195621                       # TLB misses on read requests
system.cpu0.dtb.wrAccesses                  199997894                       # TLB accesses on write requests
system.cpu0.dtb.wrMisses                           42                       # TLB misses on write requests
system.cpu0.idle_fraction                           0                       # Percentage of idle cycles
system.cpu0.itb.rdAccesses                          0                       # TLB accesses on read requests
system.cpu0.itb.rdMisses                            0                       # TLB misses on read requests
system.cpu0.itb.wrAccesses                 1300001549                       # TLB accesses on write requests
system.cpu0.itb.wrMisses                           42                       # TLB misses on write requests
system.cpu0.not_idle_fraction                       1                       # Percentage of non-idle cycles
system.cpu0.numCycles                      5495404136                       # number of cpu cycles simulated
system.cpu0.numWorkItemsCompleted                   0                       # number of work items this cpu completed
system.cpu0.numWorkItemsStarted                     0                       # number of work items this cpu started
system.cpu0.num_busy_cycles                5495404136                       # Number of busy cycles
system.cpu0.num_cc_register_reads           500025690                       # number of times the CC registers were read
system.cpu0.num_cc_register_writes          600000804                       # number of times the CC registers were written
system.cpu0.num_conditional_control_insts    100002724                       # number of instructions that are conditional controls
system.cpu0.num_fp_alu_accesses                  5835                       # Number of float alu accesses
system.cpu0.num_fp_insts                         5835                       # number of float instructions
system.cpu0.num_fp_register_reads                8883                       # number of times the floating registers were read
system.cpu0.num_fp_register_writes               4418                       # number of times the floating registers were written
system.cpu0.num_func_calls                       1296                       # number of times a function call or return occured
system.cpu0.num_idle_cycles                         0                       # Number of idle cycles
system.cpu0.num_int_alu_accesses           1899998501                       # Number of integer alu accesses
system.cpu0.num_int_insts                  1899998501                       # number of integer instructions
system.cpu0.num_int_register_reads         3799992253                       # number of times the integer registers were read
system.cpu0.num_int_register_writes        1599995227                       # number of times the integer registers were written
system.cpu0.num_load_insts                  399992395                       # Number of load instructions
system.cpu0.num_mem_refs                    599990254                       # number of memory refs
system.cpu0.num_store_insts                 199997859                       # Number of store instructions
system.cpu0.num_vec_alu_accesses                    0                       # Number of vector alu accesses
system.cpu0.num_vec_insts                           0                       # number of vector instructions
system.cpu0.num_vec_register_reads                  0                       # number of times the vector registers were read
system.cpu0.num_vec_register_writes                 0                       # number of times the vector registers were written
system.cpu0.op_class::No_OpClass                 1238      0.00%      0.00% # Class of executed instruction
system.cpu0.op_class::IntAlu               1300007784     68.42%     68.42% # Class of executed instruction
system.cpu0.op_class::IntMult                      65      0.00%     68.42% # Class of executed instruction
system.cpu0.op_class::IntDiv                      273      0.00%     68.42% # Class of executed instruction
system.cpu0.op_class::FloatAdd                    210      0.00%     68.42% # Class of executed instruction
system.cpu0.op_class::FloatCmp                      0      0.00%     68.42% # Class of executed instruction
system.cpu0.op_class::FloatCvt                      0      0.00%     68.42% # Class of executed instruction
system.cpu0.op_class::FloatMult                     0      0.00%     68.42% # Class of executed instruction
system.cpu0.op_class::FloatMultAcc                  0      0.00%     68.42% # Class of executed instruction
system.cpu0.op_class::FloatDiv                      0      0.00%     68.42% # Class of executed instruction
system.cpu0.op_class::FloatMisc                     0      0.00%     68.42% # Class of executed instruction
system.cpu0.op_class::FloatSqrt                     0      0.00%     68.42% # Class of executed instruction
system.cpu0.op_class::SimdAdd                       0      0.00%     68.42% # Class of executed instruction
system.cpu0.op_class::SimdAddAcc                    0      0.00%     68.42% # Class of executed instruction
system.cpu0.op_class::SimdAlu                     794      0.00%     68.42% # Class of executed instruction
system.cpu0.op_class::SimdCmp                       0      0.00%     68.42% # Class of executed instruction
system.cpu0.op_class::SimdCvt                    1166      0.00%     68.42% # Class of executed instruction
system.cpu0.op_class::SimdMisc                   1268      0.00%     68.42% # Class of executed instruction
system.cpu0.op_class::SimdMult                      0      0.00%     68.42% # Class of executed instruction
system.cpu0.op_class::SimdMultAcc                   0      0.00%     68.42% # Class of executed instruction
system.cpu0.op_class::SimdShift                     0      0.00%     68.42% # Class of executed instruction
system.cpu0.op_class::SimdShiftAcc                  0      0.00%     68.42% # Class of executed instruction
system.cpu0.op_class::SimdDiv                       0      0.00%     68.42% # Class of executed instruction
system.cpu0.op_class::SimdSqrt                      0      0.00%     68.42% # Class of executed instruction
system.cpu0.op_class::SimdFloatAdd                  0      0.00%     68.42% # Class of executed instruction
system.cpu0.op_class::SimdFloatAlu                  0      0.00%     68.42% # Class of executed instruction
system.cpu0.op_class::SimdFloatCmp                  0      0.00%     68.42% # Class of executed instruction
system.cpu0.op_class::SimdFloatCvt                  0      0.00%     68.42% # Class of executed instruction
system.cpu0.op_class::SimdFloatDiv                  0      0.00%     68.42% # Class of executed instruction
system.cpu0.op_class::SimdFloatMisc                 0      0.00%     68.42% # Class of executed instruction
system.cpu0.op_class::SimdFloatMult                 0      0.00%     68.42% # Class of executed instruction
system.cpu0.op_class::SimdFloatMultAcc              0      0.00%     68.42% # Class of executed instruction
system.cpu0.op_class::SimdFloatSqrt                 0      0.00%     68.42% # Class of executed instruction
system.cpu0.op_class::SimdReduceAdd                 0      0.00%     68.42% # Class of executed instruction
system.cpu0.op_class::SimdReduceAlu                 0      0.00%     68.42% # Class of executed instruction
system.cpu0.op_class::SimdReduceCmp                 0      0.00%     68.42% # Class of executed instruction
system.cpu0.op_class::SimdFloatReduceAdd            0      0.00%     68.42% # Class of executed instruction
system.cpu0.op_class::SimdFloatReduceCmp            0      0.00%     68.42% # Class of executed instruction
system.cpu0.op_class::SimdAes                       0      0.00%     68.42% # Class of executed instruction
system.cpu0.op_class::SimdAesMix                    0      0.00%     68.42% # Class of executed instruction
system.cpu0.op_class::SimdSha1Hash                  0      0.00%     68.42% # Class of executed instruction
system.cpu0.op_class::SimdSha1Hash2                 0      0.00%     68.42% # Class of executed instruction
system.cpu0.op_class::SimdSha256Hash                0      0.00%     68.42% # Class of executed instruction
system.cpu0.op_class::SimdSha256Hash2               0      0.00%     68.42% # Class of executed instruction
system.cpu0.op_class::SimdShaSigma2                 0      0.00%     68.42% # Class of executed instruction
system.cpu0.op_class::SimdShaSigma3                 0      0.00%     68.42% # Class of executed instruction
system.cpu0.op_class::SimdPredAlu                   0      0.00%     68.42% # Class of executed instruction
system.cpu0.op_class::MemRead               399991440     21.05%     89.47% # Class of executed instruction
system.cpu0.op_class::MemWrite              199997048     10.53%    100.00% # Class of executed instruction
system.cpu0.op_class::FloatMemRead                955      0.00%    100.00% # Class of executed instruction
system.cpu0.op_class::FloatMemWrite               811      0.00%    100.00% # Class of executed instruction
system.cpu0.op_class::IprAccess                     0      0.00%    100.00% # Class of executed instruction
system.cpu0.op_class::InstPrefetch                  0      0.00%    100.00% # Class of executed instruction
system.cpu0.op_class::total                1900003052                       # Class of executed instruction
system.cpu0.workload.numSyscalls                   45                       # Number of system calls
system.cpu1.Branches                          2602000                       # Number of branches fetched
system.cpu1.committedInsts                   12013273                       # Number of instructions committed
system.cpu1.committedOps                     22560614                       # Number of ops (including micro ops) committed
system.cpu1.dtb.rdAccesses                    2190088                       # TLB accesses on read requests
system.cpu1.dtb.rdMisses                          191                       # TLB misses on read requests
system.cpu1.dtb.wrAccesses                    1325118                       # TLB accesses on write requests
system.cpu1.dtb.wrMisses                          101                       # TLB misses on write requests
system.cpu1.idle_fraction                    0.990863                       # Percentage of idle cycles
system.cpu1.itb.rdAccesses                          0                       # TLB accesses on read requests
system.cpu1.itb.rdMisses                            0                       # TLB misses on read requests
system.cpu1.itb.wrAccesses                   14837034                       # TLB accesses on write requests
system.cpu1.itb.wrMisses                          195                       # TLB misses on write requests
system.cpu1.not_idle_fraction                0.009137                       # Percentage of non-idle cycles
system.cpu1.numCycles                        50212174                       # number of cpu cycles simulated
system.cpu1.numWorkItemsCompleted                   0                       # number of work items this cpu completed
system.cpu1.numWorkItemsStarted                     0                       # number of work items this cpu started
system.cpu1.num_busy_cycles              458794.722901                       # Number of busy cycles
system.cpu1.num_cc_register_reads            10615041                       # number of times the CC registers were read
system.cpu1.num_cc_register_writes            6971735                       # number of times the CC registers were written
system.cpu1.num_conditional_control_insts      1520289                       # number of instructions that are conditional controls
system.cpu1.num_fp_alu_accesses                560201                       # Number of float alu accesses
system.cpu1.num_fp_insts                       560201                       # number of float instructions
system.cpu1.num_fp_register_reads              769384                       # number of times the floating registers were read
system.cpu1.num_fp_register_writes             424067                       # number of times the floating registers were written
system.cpu1.num_func_calls                     662440                       # number of times a function call or return occured
system.cpu1.num_idle_cycles              49753379.277099                       # Number of idle cycles
system.cpu1.num_int_alu_accesses             22159771                       # Number of integer alu accesses
system.cpu1.num_int_insts                    22159771                       # number of integer instructions
system.cpu1.num_int_register_reads           43025756                       # number of times the integer registers were read
system.cpu1.num_int_register_writes          18106975                       # number of times the integer registers were written
system.cpu1.num_load_insts                    2180840                       # Number of load instructions
system.cpu1.num_mem_refs                      3505758                       # number of memory refs
system.cpu1.num_store_insts                   1324918                       # Number of store instructions
system.cpu1.num_vec_alu_accesses                    0                       # Number of vector alu accesses
system.cpu1.num_vec_insts                           0                       # number of vector instructions
system.cpu1.num_vec_register_reads                  0                       # number of times the vector registers were read
system.cpu1.num_vec_register_writes                 0                       # number of times the vector registers were written
system.cpu1.op_class::No_OpClass               113023      0.50%      0.50% # Class of executed instruction
system.cpu1.op_class::IntAlu                 18695474     82.87%     83.37% # Class of executed instruction
system.cpu1.op_class::IntMult                   17031      0.08%     83.44% # Class of executed instruction
system.cpu1.op_class::IntDiv                       98      0.00%     83.44% # Class of executed instruction
system.cpu1.op_class::FloatAdd                  20394      0.09%     83.54% # Class of executed instruction
system.cpu1.op_class::FloatCmp                      0      0.00%     83.54% # Class of executed instruction
system.cpu1.op_class::FloatCvt                      0      0.00%     83.54% # Class of executed instruction
system.cpu1.op_class::FloatMult                     0      0.00%     83.54% # Class of executed instruction
system.cpu1.op_class::FloatMultAcc                  0      0.00%     83.54% # Class of executed instruction
system.cpu1.op_class::FloatDiv                      0      0.00%     83.54% # Class of executed instruction
system.cpu1.op_class::FloatMisc                     0      0.00%     83.54% # Class of executed instruction
system.cpu1.op_class::FloatSqrt                     0      0.00%     83.54% # Class of executed instruction
system.cpu1.op_class::SimdAdd                    4470      0.02%     83.55% # Class of executed instruction
system.cpu1.op_class::SimdAddAcc                    0      0.00%     83.55% # Class of executed instruction
system.cpu1.op_class::SimdAlu                   54516      0.24%     83.80% # Class of executed instruction
system.cpu1.op_class::SimdCmp                     982      0.00%     83.80% # Class of executed instruction
system.cpu1.op_class::SimdCvt                    9420      0.04%     83.84% # Class of executed instruction
system.cpu1.op_class::SimdMisc                  38510      0.17%     84.01% # Class of executed instruction
system.cpu1.op_class::SimdMult                      0      0.00%     84.01% # Class of executed instruction
system.cpu1.op_class::SimdMultAcc                   0      0.00%     84.01% # Class of executed instruction
system.cpu1.op_class::SimdShift                     0      0.00%     84.01% # Class of executed instruction
system.cpu1.op_class::SimdShiftAcc                  0      0.00%     84.01% # Class of executed instruction
system.cpu1.op_class::SimdDiv                       0      0.00%     84.01% # Class of executed instruction
system.cpu1.op_class::SimdSqrt                      0      0.00%     84.01% # Class of executed instruction
system.cpu1.op_class::SimdFloatAdd              27958      0.12%     84.14% # Class of executed instruction
system.cpu1.op_class::SimdFloatAlu                  0      0.00%     84.14% # Class of executed instruction
system.cpu1.op_class::SimdFloatCmp                  0      0.00%     84.14% # Class of executed instruction
system.cpu1.op_class::SimdFloatCvt              22404      0.10%     84.24% # Class of executed instruction
system.cpu1.op_class::SimdFloatDiv               3059      0.01%     84.25% # Class of executed instruction
system.cpu1.op_class::SimdFloatMisc                 0      0.00%     84.25% # Class of executed instruction
system.cpu1.op_class::SimdFloatMult             45459      0.20%     84.45% # Class of executed instruction
system.cpu1.op_class::SimdFloatMultAcc              0      0.00%     84.45% # Class of executed instruction
system.cpu1.op_class::SimdFloatSqrt              2058      0.01%     84.46% # Class of executed instruction
system.cpu1.op_class::SimdReduceAdd                 0      0.00%     84.46% # Class of executed instruction
system.cpu1.op_class::SimdReduceAlu                 0      0.00%     84.46% # Class of executed instruction
system.cpu1.op_class::SimdReduceCmp                 0      0.00%     84.46% # Class of executed instruction
system.cpu1.op_class::SimdFloatReduceAdd            0      0.00%     84.46% # Class of executed instruction
system.cpu1.op_class::SimdFloatReduceCmp            0      0.00%     84.46% # Class of executed instruction
system.cpu1.op_class::SimdAes                       0      0.00%     84.46% # Class of executed instruction
system.cpu1.op_class::SimdAesMix                    0      0.00%     84.46% # Class of executed instruction
system.cpu1.op_class::SimdSha1Hash                  0      0.00%     84.46% # Class of executed instruction
system.cpu1.op_class::SimdSha1Hash2                 0      0.00%     84.46% # Class of executed instruction
system.cpu1.op_class::SimdSha256Hash                0      0.00%     84.46% # Class of executed instruction
system.cpu1.op_class::SimdSha256Hash2               0      0.00%     84.46% # Class of executed instruction
system.cpu1.op_class::SimdShaSigma2                 0      0.00%     84.46% # Class of executed instruction
system.cpu1.op_class::SimdShaSigma3                 0      0.00%     84.46% # Class of executed instruction
system.cpu1.op_class::SimdPredAlu                   0      0.00%     84.46% # Class of executed instruction
system.cpu1.op_class::MemRead                 2052496      9.10%     93.56% # Class of executed instruction
system.cpu1.op_class::MemWrite                1209956      5.36%     98.92% # Class of executed instruction
system.cpu1.op_class::FloatMemRead             128344      0.57%     99.49% # Class of executed instruction
system.cpu1.op_class::FloatMemWrite            114962      0.51%    100.00% # Class of executed instruction
system.cpu1.op_class::IprAccess                     0      0.00%    100.00% # Class of executed instruction
system.cpu1.op_class::InstPrefetch                  0      0.00%    100.00% # Class of executed instruction
system.cpu1.op_class::total                  22560614                       # Class of executed instruction
system.cpu1.workload.numSyscalls                   26                       # Number of system calls
system.membus.snoop_filter.hit_multi_requests            0                       # Number of requests hitting in the snoop filter with multiple (>1) holders of the requested data.
system.membus.snoop_filter.hit_multi_snoops            0                       # Number of snoops hitting in the snoop filter with multiple (>1) holders of the requested data.
system.membus.snoop_filter.hit_single_requests      5601495                       # Number of requests hitting in the snoop filter with a single holder of the requested data.
system.membus.snoop_filter.hit_single_snoops            0                       # Number of snoops hitting in the snoop filter with a single holder of the requested data.
system.membus.snoop_filter.tot_requests      11466067                       # Total number of requests made to the snoop filter.
system.membus.snoop_filter.tot_snoops               0                       # Total number of snoops made to the snoop filter.
system.tol2bus.snoop_filter.hit_multi_requests            0                       # Number of requests hitting in the snoop filter with multiple (>1) holders of the requested data.
system.tol2bus.snoop_filter.hit_multi_snoops            0                       # Number of snoops hitting in the snoop filter with multiple (>1) holders of the requested data.
system.tol2bus.snoop_filter.hit_single_requests     12898331                       # Number of requests hitting in the snoop filter with a single holder of the requested data.
system.tol2bus.snoop_filter.hit_single_snoops          961                       # Number of snoops hitting in the snoop filter with a single holder of the requested data.
system.tol2bus.snoop_filter.tot_requests     25797603                       # Total number of requests made to the snoop filter.
system.tol2bus.snoop_filter.tot_snoops            961                       # Total number of snoops made to the snoop filter.
system.membus.pwrStateResidencyTicks::UNDEFINED 1829969577288                       # Cumulative time (in ticks) in various power states
system.membus.trans_dist::ReadResp            5860182                       # Transaction distribution
system.membus.trans_dist::WritebackDirty         5346                       # Transaction distribution
system.membus.trans_dist::CleanEvict          5596149                       # Transaction distribution
system.membus.trans_dist::ReadExReq              4390                       # Transaction distribution
system.membus.trans_dist::ReadExResp             4390                       # Transaction distribution
system.membus.trans_dist::ReadSharedReq       5860182                       # Transaction distribution
system.membus.pkt_count_system.l2.mem_side::system.mem_ctrls.port     17330639                       # Packet count per connected master and slave (bytes)
system.membus.pkt_count_system.l2.mem_side::total     17330639                       # Packet count per connected master and slave (bytes)
system.membus.pkt_count::total               17330639                       # Packet count per connected master and slave (bytes)
system.membus.pkt_size_system.l2.mem_side::system.mem_ctrls.port    375674752                       # Cumulative packet size per connected master and slave (bytes)
system.membus.pkt_size_system.l2.mem_side::total    375674752                       # Cumulative packet size per connected master and slave (bytes)
system.membus.pkt_size::total               375674752                       # Cumulative packet size per connected master and slave (bytes)
system.membus.snoops                                0                       # Total snoops (count)
system.membus.snoopTraffic                          0                       # Total snoop traffic (bytes)
system.membus.snoop_fanout::samples           5864572                       # Request fanout histogram
system.membus.snoop_fanout::mean                    0                       # Request fanout histogram
system.membus.snoop_fanout::stdev                   0                       # Request fanout histogram
system.membus.snoop_fanout::underflows              0      0.00%      0.00% # Request fanout histogram
system.membus.snoop_fanout::0                 5864572    100.00%    100.00% # Request fanout histogram
system.membus.snoop_fanout::1                       0      0.00%    100.00% # Request fanout histogram
system.membus.snoop_fanout::overflows               0      0.00%    100.00% # Request fanout histogram
system.membus.snoop_fanout::min_value               0                       # Request fanout histogram
system.membus.snoop_fanout::max_value               0                       # Request fanout histogram
system.membus.snoop_fanout::total             5864572                       # Request fanout histogram
system.membus.reqLayer4.occupancy         19198300278                       # Layer occupancy (ticks)
system.membus.reqLayer4.utilization               1.0                       # Layer utilization (%)
system.membus.respLayer1.occupancy        31391071284                       # Layer occupancy (ticks)
system.membus.respLayer1.utilization              1.7                       # Layer utilization (%)
system.voltage_domain.voltage                       1                       # Voltage in Volts
system.clk_domain.clock                          1000                       # Clock period in ticks
system.cpu0.numPwrStateTransitions                  1                       # Number of power state transitions
system.cpu0.pwrStateResidencyTicks::ON   1829969577288                       # Cumulative time (in ticks) in various power states
system.cpu0.icache.pwrStateResidencyTicks::UNDEFINED 1829969577288                       # Cumulative time (in ticks) in various power states
system.cpu0.icache.demand_hits::.cpu0.inst   1300001096                       # number of demand (read+write) hits
system.cpu0.icache.demand_hits::total      1300001096                       # number of demand (read+write) hits
system.cpu0.icache.overall_hits::.cpu0.inst   1300001096                       # number of overall hits
system.cpu0.icache.overall_hits::total     1300001096                       # number of overall hits
system.cpu0.icache.demand_misses::.cpu0.inst          453                       # number of demand (read+write) misses
system.cpu0.icache.demand_misses::total           453                       # number of demand (read+write) misses
system.cpu0.icache.overall_misses::.cpu0.inst          453                       # number of overall misses
system.cpu0.icache.overall_misses::total          453                       # number of overall misses
system.cpu0.icache.demand_miss_latency::.cpu0.inst     37932696                       # number of demand (read+write) miss cycles
system.cpu0.icache.demand_miss_latency::total     37932696                       # number of demand (read+write) miss cycles
system.cpu0.icache.overall_miss_latency::.cpu0.inst     37932696                       # number of overall miss cycles
system.cpu0.icache.overall_miss_latency::total     37932696                       # number of overall miss cycles
system.cpu0.icache.demand_accesses::.cpu0.inst   1300001549                       # number of demand (read+write) accesses
system.cpu0.icache.demand_accesses::total   1300001549                       # number of demand (read+write) accesses
system.cpu0.icache.overall_accesses::.cpu0.inst   1300001549                       # number of overall (read+write) accesses
system.cpu0.icache.overall_accesses::total   1300001549                       # number of overall (read+write) accesses
system.cpu0.icache.demand_miss_rate::.cpu0.inst     0.000000                       # miss rate for demand accesses
system.cpu0.icache.demand_miss_rate::total     0.000000                       # miss rate for demand accesses
system.cpu0.icache.overall_miss_rate::.cpu0.inst     0.000000                       # miss rate for overall accesses
system.cpu0.icache.overall_miss_rate::total     0.000000                       # miss rate for overall accesses
system.cpu0.icache.demand_avg_miss_latency::.cpu0.inst 83736.635762                       # average overall miss latency
system.cpu0.icache.demand_avg_miss_latency::total 83736.635762                       # average overall miss latency
system.cpu0.icache.overall_avg_miss_latency::.cpu0.inst 83736.635762                       # average overall miss latency
system.cpu0.icache.overall_avg_miss_latency::total 83736.635762                       # average overall miss latency
system.cpu0.icache.blocked_cycles::no_mshrs            0                       # number of cycles access was blocked
system.cpu0.icache.blocked_cycles::no_targets            0                       # number of cycles access was blocked
system.cpu0.icache.blocked::no_mshrs                0                       # number of cycles access was blocked
system.cpu0.icache.blocked::no_targets              0                       # number of cycles access was blocked
system.cpu0.icache.avg_blocked_cycles::no_mshrs          nan                       # average number of cycles each access was blocked
system.cpu0.icache.avg_blocked_cycles::no_targets          nan                       # average number of cycles each access was blocked
system.cpu0.icache.writebacks::.writebacks           40                       # number of writebacks
system.cpu0.icache.writebacks::total               40                       # number of writebacks
system.cpu0.icache.demand_mshr_misses::.cpu0.inst          453                       # number of demand (read+write) MSHR misses
system.cpu0.icache.demand_mshr_misses::total          453                       # number of demand (read+write) MSHR misses
system.cpu0.icache.overall_mshr_misses::.cpu0.inst          453                       # number of overall MSHR misses
system.cpu0.icache.overall_mshr_misses::total          453                       # number of overall MSHR misses
system.cpu0.icache.demand_mshr_miss_latency::.cpu0.inst     37630998                       # number of demand (read+write) MSHR miss cycles
system.cpu0.icache.demand_mshr_miss_latency::total     37630998                       # number of demand (read+write) MSHR miss cycles
system.cpu0.icache.overall_mshr_miss_latency::.cpu0.inst     37630998                       # number of overall MSHR miss cycles
system.cpu0.icache.overall_mshr_miss_latency::total     37630998                       # number of overall MSHR miss cycles
system.cpu0.icache.demand_mshr_miss_rate::.cpu0.inst     0.000000                       # mshr miss rate for demand accesses
system.cpu0.icache.demand_mshr_miss_rate::total     0.000000                       # mshr miss rate for demand accesses
system.cpu0.icache.overall_mshr_miss_rate::.cpu0.inst     0.000000                       # mshr miss rate for overall accesses
system.cpu0.icache.overall_mshr_miss_rate::total     0.000000                       # mshr miss rate for overall accesses
system.cpu0.icache.demand_avg_mshr_miss_latency::.cpu0.inst 83070.635762                       # average overall mshr miss latency
system.cpu0.icache.demand_avg_mshr_miss_latency::total 83070.635762                       # average overall mshr miss latency
system.cpu0.icache.overall_avg_mshr_miss_latency::.cpu0.inst 83070.635762                       # average overall mshr miss latency
system.cpu0.icache.overall_avg_mshr_miss_latency::total 83070.635762                       # average overall mshr miss latency
system.cpu0.icache.replacements                    40                       # number of replacements
system.cpu0.icache.ReadReq_hits::.cpu0.inst   1300001096                       # number of ReadReq hits
system.cpu0.icache.ReadReq_hits::total     1300001096                       # number of ReadReq hits
system.cpu0.icache.ReadReq_misses::.cpu0.inst          453                       # number of ReadReq misses
system.cpu0.icache.ReadReq_misses::total          453                       # number of ReadReq misses
system.cpu0.icache.ReadReq_miss_latency::.cpu0.inst     37932696                       # number of ReadReq miss cycles
system.cpu0.icache.ReadReq_miss_latency::total     37932696                       # number of ReadReq miss cycles
system.cpu0.icache.ReadReq_accesses::.cpu0.inst   1300001549                       # number of ReadReq accesses(hits+misses)
system.cpu0.icache.ReadReq_accesses::total   1300001549                       # number of ReadReq accesses(hits+misses)
system.cpu0.icache.ReadReq_miss_rate::.cpu0.inst     0.000000                       # miss rate for ReadReq accesses
system.cpu0.icache.ReadReq_miss_rate::total     0.000000                       # miss rate for ReadReq accesses
system.cpu0.icache.ReadReq_avg_miss_latency::.cpu0.inst 83736.635762                       # average ReadReq miss latency
system.cpu0.icache.ReadReq_avg_miss_latency::total 83736.635762                       # average ReadReq miss latency
system.cpu0.icache.ReadReq_mshr_misses::.cpu0.inst          453                       # number of ReadReq MSHR misses
system.cpu0.icache.ReadReq_mshr_misses::total          453                       # number of ReadReq MSHR misses
system.cpu0.icache.ReadReq_mshr_miss_latency::.cpu0.inst     37630998                       # number of ReadReq MSHR miss cycles
system.cpu0.icache.ReadReq_mshr_miss_latency::total     37630998                       # number of ReadReq MSHR miss cycles
system.cpu0.icache.ReadReq_mshr_miss_rate::.cpu0.inst     0.000000                       # mshr miss rate for ReadReq accesses
system.cpu0.icache.ReadReq_mshr_miss_rate::total     0.000000                       # mshr miss rate for ReadReq accesses
system.cpu0.icache.ReadReq_avg_mshr_miss_latency::.cpu0.inst 83070.635762                       # average ReadReq mshr miss latency
system.cpu0.icache.ReadReq_avg_mshr_miss_latency::total 83070.635762                       # average ReadReq mshr miss latency
system.cpu0.icache.tags.pwrStateResidencyTicks::UNDEFINED 1829969577288                       # Cumulative time (in ticks) in various power states
system.cpu0.icache.tags.tagsinuse          410.389007                       # Cycle average of tags in use
system.cpu0.icache.tags.total_refs         1300001549                       # Total number of references to valid blocks.
system.cpu0.icache.tags.sampled_refs              453                       # Sample count of references to valid blocks.
system.cpu0.icache.tags.avg_refs         2869760.593819                       # Average number of references to valid blocks.
system.cpu0.icache.tags.warmup_cycle            83250                       # Cycle when the warmup percentage was hit.
system.cpu0.icache.tags.occ_blocks::.cpu0.inst   410.389007                       # Average occupied blocks per requestor
system.cpu0.icache.tags.occ_percent::.cpu0.inst     0.801541                       # Average percentage of cache occupancy
system.cpu0.icache.tags.occ_percent::total     0.801541                       # Average percentage of cache occupancy
system.cpu0.icache.tags.occ_task_id_blocks::1024          413                       # Occupied blocks per task id
system.cpu0.icache.tags.age_task_id_blocks_1024::4          413                       # Occupied blocks per task id
system.cpu0.icache.tags.occ_task_id_percent::1024     0.806641                       # Percentage of cache occupancy per task id
system.cpu0.icache.tags.tag_accesses      10400012845                       # Number of tag accesses
system.cpu0.icache.tags.data_accesses     10400012845                       # Number of data accesses
system.cpu0.icache.tags.repl_invalid                0                       # Number of initial replacements
system.cpu0.icache.tags.repl_valid_tag              0                       # Number of local replacements
system.cpu0.icache.tags.repl_valid_data             0                       # Number of global replacements
system.cpu0.dtb.walker.pwrStateResidencyTicks::UNDEFINED 1829969577288                       # Cumulative time (in ticks) in various power states
system.cpu0.interrupts.clk_domain.clock          5328                       # Clock period in ticks
system.cpu0.itb_walker_cache.pwrStateResidencyTicks::UNDEFINED 1829969577288                       # Cumulative time (in ticks) in various power states
system.cpu0.itb_walker_cache.blocked_cycles::no_mshrs            0                       # number of cycles access was blocked
system.cpu0.itb_walker_cache.blocked_cycles::no_targets            0                       # number of cycles access was blocked
system.cpu0.itb_walker_cache.blocked::no_mshrs            0                       # number of cycles access was blocked
system.cpu0.itb_walker_cache.blocked::no_targets            0                       # number of cycles access was blocked
system.cpu0.itb_walker_cache.avg_blocked_cycles::no_mshrs          nan                       # average number of cycles each access was blocked
system.cpu0.itb_walker_cache.avg_blocked_cycles::no_targets          nan                       # average number of cycles each access was blocked
system.cpu0.itb_walker_cache.replacements            0                       # number of replacements
system.cpu0.itb_walker_cache.tags.pwrStateResidencyTicks::UNDEFINED 1829969577288                       # Cumulative time (in ticks) in various power states
system.cpu0.itb_walker_cache.tags.tagsinuse            0                       # Cycle average of tags in use
system.cpu0.itb_walker_cache.tags.total_refs            0                       # Total number of references to valid blocks.
system.cpu0.itb_walker_cache.tags.sampled_refs            0                       # Sample count of references to valid blocks.
system.cpu0.itb_walker_cache.tags.avg_refs          nan                       # Average number of references to valid blocks.
system.cpu0.itb_walker_cache.tags.warmup_cycle            0                       # Cycle when the warmup percentage was hit.
system.cpu0.itb_walker_cache.tags.tag_accesses            0                       # Number of tag accesses
system.cpu0.itb_walker_cache.tags.data_accesses            0                       # Number of data accesses
system.cpu0.itb_walker_cache.tags.repl_invalid            0                       # Number of initial replacements
system.cpu0.itb_walker_cache.tags.repl_valid_tag            0                       # Number of local replacements
system.cpu0.itb_walker_cache.tags.repl_valid_data            0                       # Number of global replacements
system.cpu0.itb.walker.pwrStateResidencyTicks::UNDEFINED 1829969577288                       # Cumulative time (in ticks) in various power states
system.cpu0.dtb_walker_cache.pwrStateResidencyTicks::UNDEFINED 1829969577288                       # Cumulative time (in ticks) in various power states
system.cpu0.dtb_walker_cache.blocked_cycles::no_mshrs            0                       # number of cycles access was blocked
system.cpu0.dtb_walker_cache.blocked_cycles::no_targets            0                       # number of cycles access was blocked
system.cpu0.dtb_walker_cache.blocked::no_mshrs            0                       # number of cycles access was blocked
system.cpu0.dtb_walker_cache.blocked::no_targets            0                       # number of cycles access was blocked
system.cpu0.dtb_walker_cache.avg_blocked_cycles::no_mshrs          nan                       # average number of cycles each access was blocked
system.cpu0.dtb_walker_cache.avg_blocked_cycles::no_targets          nan                       # average number of cycles each access was blocked
system.cpu0.dtb_walker_cache.replacements            0                       # number of replacements
system.cpu0.dtb_walker_cache.tags.pwrStateResidencyTicks::UNDEFINED 1829969577288                       # Cumulative time (in ticks) in various power states
system.cpu0.dtb_walker_cache.tags.tagsinuse            0                       # Cycle average of tags in use
system.cpu0.dtb_walker_cache.tags.total_refs            0                       # Total number of references to valid blocks.
system.cpu0.dtb_walker_cache.tags.sampled_refs            0                       # Sample count of references to valid blocks.
system.cpu0.dtb_walker_cache.tags.avg_refs          nan                       # Average number of references to valid blocks.
system.cpu0.dtb_walker_cache.tags.warmup_cycle            0                       # Cycle when the warmup percentage was hit.
system.cpu0.dtb_walker_cache.tags.tag_accesses            0                       # Number of tag accesses
system.cpu0.dtb_walker_cache.tags.data_accesses            0                       # Number of data accesses
system.cpu0.dtb_walker_cache.tags.repl_invalid            0                       # Number of initial replacements
system.cpu0.dtb_walker_cache.tags.repl_valid_tag            0                       # Number of local replacements
system.cpu0.dtb_walker_cache.tags.repl_valid_data            0                       # Number of global replacements
system.cpu0.dcache.pwrStateResidencyTicks::UNDEFINED 1829969577288                       # Cumulative time (in ticks) in various power states
system.cpu0.dcache.demand_hits::.cpu0.data    587487306                       # number of demand (read+write) hits
system.cpu0.dcache.demand_hits::total       587487306                       # number of demand (read+write) hits
system.cpu0.dcache.overall_hits::.cpu0.data    587487306                       # number of overall hits
system.cpu0.dcache.overall_hits::total      587487306                       # number of overall hits
system.cpu0.dcache.demand_misses::.cpu0.data     12503021                       # number of demand (read+write) misses
system.cpu0.dcache.demand_misses::total      12503021                       # number of demand (read+write) misses
system.cpu0.dcache.overall_misses::.cpu0.data     12503021                       # number of overall misses
system.cpu0.dcache.overall_misses::total     12503021                       # number of overall misses
system.cpu0.dcache.demand_miss_latency::.cpu0.data 572864427135                       # number of demand (read+write) miss cycles
system.cpu0.dcache.demand_miss_latency::total 572864427135                       # number of demand (read+write) miss cycles
system.cpu0.dcache.overall_miss_latency::.cpu0.data 572864427135                       # number of overall miss cycles
system.cpu0.dcache.overall_miss_latency::total 572864427135                       # number of overall miss cycles
system.cpu0.dcache.demand_accesses::.cpu0.data    599990327                       # number of demand (read+write) accesses
system.cpu0.dcache.demand_accesses::total    599990327                       # number of demand (read+write) accesses
system.cpu0.dcache.overall_accesses::.cpu0.data    599990327                       # number of overall (read+write) accesses
system.cpu0.dcache.overall_accesses::total    599990327                       # number of overall (read+write) accesses
system.cpu0.dcache.demand_miss_rate::.cpu0.data     0.020839                       # miss rate for demand accesses
system.cpu0.dcache.demand_miss_rate::total     0.020839                       # miss rate for demand accesses
system.cpu0.dcache.overall_miss_rate::.cpu0.data     0.020839                       # miss rate for overall accesses
system.cpu0.dcache.overall_miss_rate::total     0.020839                       # miss rate for overall accesses
system.cpu0.dcache.demand_avg_miss_latency::.cpu0.data 45818.080857                       # average overall miss latency
system.cpu0.dcache.demand_avg_miss_latency::total 45818.080857                       # average overall miss latency
system.cpu0.dcache.overall_avg_miss_latency::.cpu0.data 45818.080857                       # average overall miss latency
system.cpu0.dcache.overall_avg_miss_latency::total 45818.080857                       # average overall miss latency
system.cpu0.dcache.blocked_cycles::no_mshrs            0                       # number of cycles access was blocked
system.cpu0.dcache.blocked_cycles::no_targets            0                       # number of cycles access was blocked
system.cpu0.dcache.blocked::no_mshrs                0                       # number of cycles access was blocked
system.cpu0.dcache.blocked::no_targets              0                       # number of cycles access was blocked
system.cpu0.dcache.avg_blocked_cycles::no_mshrs          nan                       # average number of cycles each access was blocked
system.cpu0.dcache.avg_blocked_cycles::no_targets          nan                       # average number of cycles each access was blocked
system.cpu0.dcache.writebacks::.writebacks         2123                       # number of writebacks
system.cpu0.dcache.writebacks::total             2123                       # number of writebacks
system.cpu0.dcache.demand_mshr_misses::.cpu0.data     12503021                       # number of demand (read+write) MSHR misses
system.cpu0.dcache.demand_mshr_misses::total     12503021                       # number of demand (read+write) MSHR misses
system.cpu0.dcache.overall_mshr_misses::.cpu0.data     12503021                       # number of overall MSHR misses
system.cpu0.dcache.overall_mshr_misses::total     12503021                       # number of overall MSHR misses
system.cpu0.dcache.demand_mshr_miss_latency::.cpu0.data 564537415149                       # number of demand (read+write) MSHR miss cycles
system.cpu0.dcache.demand_mshr_miss_latency::total 564537415149                       # number of demand (read+write) MSHR miss cycles
system.cpu0.dcache.overall_mshr_miss_latency::.cpu0.data 564537415149                       # number of overall MSHR miss cycles
system.cpu0.dcache.overall_mshr_miss_latency::total 564537415149                       # number of overall MSHR miss cycles
system.cpu0.dcache.demand_mshr_miss_rate::.cpu0.data     0.020839                       # mshr miss rate for demand accesses
system.cpu0.dcache.demand_mshr_miss_rate::total     0.020839                       # mshr miss rate for demand accesses
system.cpu0.dcache.overall_mshr_miss_rate::.cpu0.data     0.020839                       # mshr miss rate for overall accesses
system.cpu0.dcache.overall_mshr_miss_rate::total     0.020839                       # mshr miss rate for overall accesses
system.cpu0.dcache.demand_avg_mshr_miss_latency::.cpu0.data 45152.080857                       # average overall mshr miss latency
system.cpu0.dcache.demand_avg_mshr_miss_latency::total 45152.080857                       # average overall mshr miss latency
system.cpu0.dcache.overall_avg_mshr_miss_latency::.cpu0.data 45152.080857                       # average overall mshr miss latency
system.cpu0.dcache.overall_avg_mshr_miss_latency::total 45152.080857                       # average overall mshr miss latency
system.cpu0.dcache.replacements              12503013                       # number of replacements
system.cpu0.dcache.ReadReq_hits::.cpu0.data    387490491                       # number of ReadReq hits
system.cpu0.dcache.ReadReq_hits::total      387490491                       # number of ReadReq hits
system.cpu0.dcache.ReadReq_misses::.cpu0.data     12501942                       # number of ReadReq misses
system.cpu0.dcache.ReadReq_misses::total     12501942                       # number of ReadReq misses
system.cpu0.dcache.ReadReq_miss_latency::.cpu0.data 572836368888                       # number of ReadReq miss cycles
system.cpu0.dcache.ReadReq_miss_latency::total 572836368888                       # number of ReadReq miss cycles
system.cpu0.dcache.ReadReq_accesses::.cpu0.data    399992433                       # number of ReadReq accesses(hits+misses)
system.cpu0.dcache.ReadReq_accesses::total    399992433                       # number of ReadReq accesses(hits+misses)
system.cpu0.dcache.ReadReq_miss_rate::.cpu0.data     0.031255                       # miss rate for ReadReq accesses
system.cpu0.dcache.ReadReq_miss_rate::total     0.031255                       # miss rate for ReadReq accesses
system.cpu0.dcache.ReadReq_avg_miss_latency::.cpu0.data 45819.790948                       # average ReadReq miss latency
system.cpu0.dcache.ReadReq_avg_miss_latency::total 45819.790948                       # average ReadReq miss latency
system.cpu0.dcache.ReadReq_mshr_misses::.cpu0.data     12501942                       # number of ReadReq MSHR misses
system.cpu0.dcache.ReadReq_mshr_misses::total     12501942                       # number of ReadReq MSHR misses
system.cpu0.dcache.ReadReq_mshr_miss_latency::.cpu0.data 564510075516                       # number of ReadReq MSHR miss cycles
system.cpu0.dcache.ReadReq_mshr_miss_latency::total 564510075516                       # number of ReadReq MSHR miss cycles
system.cpu0.dcache.ReadReq_mshr_miss_rate::.cpu0.data     0.031255                       # mshr miss rate for ReadReq accesses
system.cpu0.dcache.ReadReq_mshr_miss_rate::total     0.031255                       # mshr miss rate for ReadReq accesses
system.cpu0.dcache.ReadReq_avg_mshr_miss_latency::.cpu0.data 45153.790948                       # average ReadReq mshr miss latency
system.cpu0.dcache.ReadReq_avg_mshr_miss_latency::total 45153.790948                       # average ReadReq mshr miss latency
system.cpu0.dcache.WriteReq_hits::.cpu0.data    199996815                       # number of WriteReq hits
system.cpu0.dcache.WriteReq_hits::total     199996815                       # number of WriteReq hits
system.cpu0.dcache.WriteReq_misses::.cpu0.data         1079                       # number of WriteReq misses
system.cpu0.dcache.WriteReq_misses::total         1079                       # number of WriteReq misses
system.cpu0.dcache.WriteReq_miss_latency::.cpu0.data     28058247                       # number of WriteReq miss cycles
system.cpu0.dcache.WriteReq_miss_latency::total     28058247                       # number of WriteReq miss cycles
system.cpu0.dcache.WriteReq_accesses::.cpu0.data    199997894                       # number of WriteReq accesses(hits+misses)
system.cpu0.dcache.WriteReq_accesses::total    199997894                       # number of WriteReq accesses(hits+misses)
system.cpu0.dcache.WriteReq_miss_rate::.cpu0.data     0.000005                       # miss rate for WriteReq accesses
system.cpu0.dcache.WriteReq_miss_rate::total     0.000005                       # miss rate for WriteReq accesses
system.cpu0.dcache.WriteReq_avg_miss_latency::.cpu0.data 26003.936052                       # average WriteReq miss latency
system.cpu0.dcache.WriteReq_avg_miss_latency::total 26003.936052                       # average WriteReq miss latency
system.cpu0.dcache.WriteReq_mshr_misses::.cpu0.data         1079                       # number of WriteReq MSHR misses
system.cpu0.dcache.WriteReq_mshr_misses::total         1079                       # number of WriteReq MSHR misses
system.cpu0.dcache.WriteReq_mshr_miss_latency::.cpu0.data     27339633                       # number of WriteReq MSHR miss cycles
system.cpu0.dcache.WriteReq_mshr_miss_latency::total     27339633                       # number of WriteReq MSHR miss cycles
system.cpu0.dcache.WriteReq_mshr_miss_rate::.cpu0.data     0.000005                       # mshr miss rate for WriteReq accesses
system.cpu0.dcache.WriteReq_mshr_miss_rate::total     0.000005                       # mshr miss rate for WriteReq accesses
system.cpu0.dcache.WriteReq_avg_mshr_miss_latency::.cpu0.data 25337.936052                       # average WriteReq mshr miss latency
system.cpu0.dcache.WriteReq_avg_mshr_miss_latency::total 25337.936052                       # average WriteReq mshr miss latency
system.cpu0.dcache.tags.pwrStateResidencyTicks::UNDEFINED 1829969577288                       # Cumulative time (in ticks) in various power states
system.cpu0.dcache.tags.tagsinuse            7.999997                       # Cycle average of tags in use
system.cpu0.dcache.tags.total_refs          599990327                       # Total number of references to valid blocks.
system.cpu0.dcache.tags.sampled_refs         12503021                       # Sample count of references to valid blocks.
system.cpu0.dcache.tags.avg_refs            47.987629                       # Average number of references to valid blocks.
system.cpu0.dcache.tags.warmup_cycle           165168                       # Cycle when the warmup percentage was hit.
system.cpu0.dcache.tags.occ_blocks::.cpu0.data     7.999997                       # Average occupied blocks per requestor
system.cpu0.dcache.tags.occ_percent::.cpu0.data     1.000000                       # Average percentage of cache occupancy
system.cpu0.dcache.tags.occ_percent::total     1.000000                       # Average percentage of cache occupancy
system.cpu0.dcache.tags.occ_task_id_blocks::1024            8                       # Occupied blocks per task id
system.cpu0.dcache.tags.age_task_id_blocks_1024::0            7                       # Occupied blocks per task id
system.cpu0.dcache.tags.age_task_id_blocks_1024::4            1                       # Occupied blocks per task id
system.cpu0.dcache.tags.occ_task_id_percent::1024            1                       # Percentage of cache occupancy per task id
system.cpu0.dcache.tags.tag_accesses       4812425637                       # Number of tag accesses
system.cpu0.dcache.tags.data_accesses      4812425637                       # Number of data accesses
system.cpu0.dcache.tags.repl_invalid                0                       # Number of initial replacements
system.cpu0.dcache.tags.repl_valid_tag              0                       # Number of local replacements
system.cpu0.dcache.tags.repl_valid_data             0                       # Number of global replacements
system.cpu1.numPwrStateTransitions                  1                       # Number of power state transitions
system.cpu1.pwrStateResidencyTicks::ON   1829969577288                       # Cumulative time (in ticks) in various power states
system.cpu1.icache.pwrStateResidencyTicks::UNDEFINED 1829969577288                       # Cumulative time (in ticks) in various power states
system.cpu1.icache.demand_hits::.cpu1.inst     14833226                       # number of demand (read+write) hits
system.cpu1.icache.demand_hits::total        14833226                       # number of demand (read+write) hits
system.cpu1.icache.overall_hits::.cpu1.inst     14833226                       # number of overall hits
system.cpu1.icache.overall_hits::total       14833226                       # number of overall hits
system.cpu1.icache.demand_misses::.cpu1.inst         3808                       # number of demand (read+write) misses
system.cpu1.icache.demand_misses::total          3808                       # number of demand (read+write) misses
system.cpu1.icache.overall_misses::.cpu1.inst         3808                       # number of overall misses
system.cpu1.icache.overall_misses::total         3808                       # number of overall misses
system.cpu1.icache.demand_miss_latency::.cpu1.inst    225421353                       # number of demand (read+write) miss cycles
system.cpu1.icache.demand_miss_latency::total    225421353                       # number of demand (read+write) miss cycles
system.cpu1.icache.overall_miss_latency::.cpu1.inst    225421353                       # number of overall miss cycles
system.cpu1.icache.overall_miss_latency::total    225421353                       # number of overall miss cycles
system.cpu1.icache.demand_accesses::.cpu1.inst     14837034                       # number of demand (read+write) accesses
system.cpu1.icache.demand_accesses::total     14837034                       # number of demand (read+write) accesses
system.cpu1.icache.overall_accesses::.cpu1.inst     14837034                       # number of overall (read+write) accesses
system.cpu1.icache.overall_accesses::total     14837034                       # number of overall (read+write) accesses
system.cpu1.icache.demand_miss_rate::.cpu1.inst     0.000257                       # miss rate for demand accesses
system.cpu1.icache.demand_miss_rate::total     0.000257                       # miss rate for demand accesses
system.cpu1.icache.overall_miss_rate::.cpu1.inst     0.000257                       # miss rate for overall accesses
system.cpu1.icache.overall_miss_rate::total     0.000257                       # miss rate for overall accesses
system.cpu1.icache.demand_avg_miss_latency::.cpu1.inst 59196.783876                       # average overall miss latency
system.cpu1.icache.demand_avg_miss_latency::total 59196.783876                       # average overall miss latency
system.cpu1.icache.overall_avg_miss_latency::.cpu1.inst 59196.783876                       # average overall miss latency
system.cpu1.icache.overall_avg_miss_latency::total 59196.783876                       # average overall miss latency
system.cpu1.icache.blocked_cycles::no_mshrs            0                       # number of cycles access was blocked
system.cpu1.icache.blocked_cycles::no_targets            0                       # number of cycles access was blocked
system.cpu1.icache.blocked::no_mshrs                0                       # number of cycles access was blocked
system.cpu1.icache.blocked::no_targets              0                       # number of cycles access was blocked
system.cpu1.icache.avg_blocked_cycles::no_mshrs          nan                       # average number of cycles each access was blocked
system.cpu1.icache.avg_blocked_cycles::no_targets          nan                       # average number of cycles each access was blocked
system.cpu1.icache.writebacks::.writebacks         3296                       # number of writebacks
system.cpu1.icache.writebacks::total             3296                       # number of writebacks
system.cpu1.icache.demand_mshr_misses::.cpu1.inst         3808                       # number of demand (read+write) MSHR misses
system.cpu1.icache.demand_mshr_misses::total         3808                       # number of demand (read+write) MSHR misses
system.cpu1.icache.overall_mshr_misses::.cpu1.inst         3808                       # number of overall MSHR misses
system.cpu1.icache.overall_mshr_misses::total         3808                       # number of overall MSHR misses
system.cpu1.icache.demand_mshr_miss_latency::.cpu1.inst    222885225                       # number of demand (read+write) MSHR miss cycles
system.cpu1.icache.demand_mshr_miss_latency::total    222885225                       # number of demand (read+write) MSHR miss cycles
system.cpu1.icache.overall_mshr_miss_latency::.cpu1.inst    222885225                       # number of overall MSHR miss cycles
system.cpu1.icache.overall_mshr_miss_latency::total    222885225                       # number of overall MSHR miss cycles
system.cpu1.icache.demand_mshr_miss_rate::.cpu1.inst     0.000257                       # mshr miss rate for demand accesses
system.cpu1.icache.demand_mshr_miss_rate::total     0.000257                       # mshr miss rate for demand accesses
system.cpu1.icache.overall_mshr_miss_rate::.cpu1.inst     0.000257                       # mshr miss rate for overall accesses
system.cpu1.icache.overall_mshr_miss_rate::total     0.000257                       # mshr miss rate for overall accesses
system.cpu1.icache.demand_avg_mshr_miss_latency::.cpu1.inst 58530.783876                       # average overall mshr miss latency
system.cpu1.icache.demand_avg_mshr_miss_latency::total 58530.783876                       # average overall mshr miss latency
system.cpu1.icache.overall_avg_mshr_miss_latency::.cpu1.inst 58530.783876                       # average overall mshr miss latency
system.cpu1.icache.overall_avg_mshr_miss_latency::total 58530.783876                       # average overall mshr miss latency
system.cpu1.icache.replacements                  3296                       # number of replacements
system.cpu1.icache.ReadReq_hits::.cpu1.inst     14833226                       # number of ReadReq hits
system.cpu1.icache.ReadReq_hits::total       14833226                       # number of ReadReq hits
system.cpu1.icache.ReadReq_misses::.cpu1.inst         3808                       # number of ReadReq misses
system.cpu1.icache.ReadReq_misses::total         3808                       # number of ReadReq misses
system.cpu1.icache.ReadReq_miss_latency::.cpu1.inst    225421353                       # number of ReadReq miss cycles
system.cpu1.icache.ReadReq_miss_latency::total    225421353                       # number of ReadReq miss cycles
system.cpu1.icache.ReadReq_accesses::.cpu1.inst     14837034                       # number of ReadReq accesses(hits+misses)
system.cpu1.icache.ReadReq_accesses::total     14837034                       # number of ReadReq accesses(hits+misses)
system.cpu1.icache.ReadReq_miss_rate::.cpu1.inst     0.000257                       # miss rate for ReadReq accesses
system.cpu1.icache.ReadReq_miss_rate::total     0.000257                       # miss rate for ReadReq accesses
system.cpu1.icache.ReadReq_avg_miss_latency::.cpu1.inst 59196.783876                       # average ReadReq miss latency
system.cpu1.icache.ReadReq_avg_miss_latency::total 59196.783876                       # average ReadReq miss latency
system.cpu1.icache.ReadReq_mshr_misses::.cpu1.inst         3808                       # number of ReadReq MSHR misses
system.cpu1.icache.ReadReq_mshr_misses::total         3808                       # number of ReadReq MSHR misses
system.cpu1.icache.ReadReq_mshr_miss_latency::.cpu1.inst    222885225                       # number of ReadReq MSHR miss cycles
system.cpu1.icache.ReadReq_mshr_miss_latency::total    222885225                       # number of ReadReq MSHR miss cycles
system.cpu1.icache.ReadReq_mshr_miss_rate::.cpu1.inst     0.000257                       # mshr miss rate for ReadReq accesses
system.cpu1.icache.ReadReq_mshr_miss_rate::total     0.000257                       # mshr miss rate for ReadReq accesses
system.cpu1.icache.ReadReq_avg_mshr_miss_latency::.cpu1.inst 58530.783876                       # average ReadReq mshr miss latency
system.cpu1.icache.ReadReq_avg_mshr_miss_latency::total 58530.783876                       # average ReadReq mshr miss latency
system.cpu1.icache.tags.pwrStateResidencyTicks::UNDEFINED 1829969577288                       # Cumulative time (in ticks) in various power states
system.cpu1.icache.tags.tagsinuse          511.984658                       # Cycle average of tags in use
system.cpu1.icache.tags.total_refs           14837034                       # Total number of references to valid blocks.
system.cpu1.icache.tags.sampled_refs             3808                       # Sample count of references to valid blocks.
system.cpu1.icache.tags.avg_refs          3896.279937                       # Average number of references to valid blocks.
system.cpu1.icache.tags.warmup_cycle            88245                       # Cycle when the warmup percentage was hit.
system.cpu1.icache.tags.occ_blocks::.cpu1.inst   511.984658                       # Average occupied blocks per requestor
system.cpu1.icache.tags.occ_percent::.cpu1.inst     0.999970                       # Average percentage of cache occupancy
system.cpu1.icache.tags.occ_percent::total     0.999970                       # Average percentage of cache occupancy
system.cpu1.icache.tags.occ_task_id_blocks::1024          512                       # Occupied blocks per task id
system.cpu1.icache.tags.age_task_id_blocks_1024::4          512                       # Occupied blocks per task id
system.cpu1.icache.tags.occ_task_id_percent::1024            1                       # Percentage of cache occupancy per task id
system.cpu1.icache.tags.tag_accesses        118700080                       # Number of tag accesses
system.cpu1.icache.tags.data_accesses       118700080                       # Number of data accesses
system.cpu1.icache.tags.repl_invalid                0                       # Number of initial replacements
system.cpu1.icache.tags.repl_valid_tag              0                       # Number of local replacements
system.cpu1.icache.tags.repl_valid_data             0                       # Number of global replacements
system.cpu1.dtb.walker.pwrStateResidencyTicks::UNDEFINED 1829969577288                       # Cumulative time (in ticks) in various power states
system.cpu1.interrupts.clk_domain.clock          5328                       # Clock period in ticks
system.cpu1.itb_walker_cache.pwrStateResidencyTicks::UNDEFINED 1829969577288                       # Cumulative time (in ticks) in various power states
system.cpu1.itb_walker_cache.blocked_cycles::no_mshrs            0                       # number of cycles access was blocked
system.cpu1.itb_walker_cache.blocked_cycles::no_targets            0                       # number of cycles access was blocked
system.cpu1.itb_walker_cache.blocked::no_mshrs            0                       # number of cycles access was blocked
system.cpu1.itb_walker_cache.blocked::no_targets            0                       # number of cycles access was blocked
system.cpu1.itb_walker_cache.avg_blocked_cycles::no_mshrs          nan                       # average number of cycles each access was blocked
system.cpu1.itb_walker_cache.avg_blocked_cycles::no_targets          nan                       # average number of cycles each access was blocked
system.cpu1.itb_walker_cache.replacements            0                       # number of replacements
system.cpu1.itb_walker_cache.tags.pwrStateResidencyTicks::UNDEFINED 1829969577288                       # Cumulative time (in ticks) in various power states
system.cpu1.itb_walker_cache.tags.tagsinuse            0                       # Cycle average of tags in use
system.cpu1.itb_walker_cache.tags.total_refs            0                       # Total number of references to valid blocks.
system.cpu1.itb_walker_cache.tags.sampled_refs            0                       # Sample count of references to valid blocks.
system.cpu1.itb_walker_cache.tags.avg_refs          nan                       # Average number of references to valid blocks.
system.cpu1.itb_walker_cache.tags.warmup_cycle            0                       # Cycle when the warmup percentage was hit.
system.cpu1.itb_walker_cache.tags.tag_accesses            0                       # Number of tag accesses
system.cpu1.itb_walker_cache.tags.data_accesses            0                       # Number of data accesses
system.cpu1.itb_walker_cache.tags.repl_invalid            0                       # Number of initial replacements
system.cpu1.itb_walker_cache.tags.repl_valid_tag            0                       # Number of local replacements
system.cpu1.itb_walker_cache.tags.repl_valid_data            0                       # Number of global replacements
system.cpu1.itb.walker.pwrStateResidencyTicks::UNDEFINED 1829969577288                       # Cumulative time (in ticks) in various power states
system.cpu1.dtb_walker_cache.pwrStateResidencyTicks::UNDEFINED 1829969577288                       # Cumulative time (in ticks) in various power states
system.cpu1.dtb_walker_cache.blocked_cycles::no_mshrs            0                       # number of cycles access was blocked
system.cpu1.dtb_walker_cache.blocked_cycles::no_targets            0                       # number of cycles access was blocked
system.cpu1.dtb_walker_cache.blocked::no_mshrs            0                       # number of cycles access was blocked
system.cpu1.dtb_walker_cache.blocked::no_targets            0                       # number of cycles access was blocked
system.cpu1.dtb_walker_cache.avg_blocked_cycles::no_mshrs          nan                       # average number of cycles each access was blocked
system.cpu1.dtb_walker_cache.avg_blocked_cycles::no_targets          nan                       # average number of cycles each access was blocked
system.cpu1.dtb_walker_cache.replacements            0                       # number of replacements
system.cpu1.dtb_walker_cache.tags.pwrStateResidencyTicks::UNDEFINED 1829969577288                       # Cumulative time (in ticks) in various power states
system.cpu1.dtb_walker_cache.tags.tagsinuse            0                       # Cycle average of tags in use
system.cpu1.dtb_walker_cache.tags.total_refs            0                       # Total number of references to valid blocks.
system.cpu1.dtb_walker_cache.tags.sampled_refs            0                       # Sample count of references to valid blocks.
system.cpu1.dtb_walker_cache.tags.avg_refs          nan                       # Average number of references to valid blocks.
system.cpu1.dtb_walker_cache.tags.warmup_cycle            0                       # Cycle when the warmup percentage was hit.
system.cpu1.dtb_walker_cache.tags.tag_accesses            0                       # Number of tag accesses
system.cpu1.dtb_walker_cache.tags.data_accesses            0                       # Number of data accesses
system.cpu1.dtb_walker_cache.tags.repl_invalid            0                       # Number of initial replacements
system.cpu1.dtb_walker_cache.tags.repl_valid_tag            0                       # Number of local replacements
system.cpu1.dtb_walker_cache.tags.repl_valid_data            0                       # Number of global replacements
system.cpu1.dcache.pwrStateResidencyTicks::UNDEFINED 1829969577288                       # Cumulative time (in ticks) in various power states
system.cpu1.dcache.demand_hits::.cpu1.data      3123216                       # number of demand (read+write) hits
system.cpu1.dcache.demand_hits::total         3123216                       # number of demand (read+write) hits
system.cpu1.dcache.overall_hits::.cpu1.data      3123216                       # number of overall hits
system.cpu1.dcache.overall_hits::total        3123216                       # number of overall hits
system.cpu1.dcache.demand_misses::.cpu1.data       391990                       # number of demand (read+write) misses
system.cpu1.dcache.demand_misses::total        391990                       # number of demand (read+write) misses
system.cpu1.dcache.overall_misses::.cpu1.data       391990                       # number of overall misses
system.cpu1.dcache.overall_misses::total       391990                       # number of overall misses
system.cpu1.dcache.demand_miss_latency::.cpu1.data   4542871914                       # number of demand (read+write) miss cycles
system.cpu1.dcache.demand_miss_latency::total   4542871914                       # number of demand (read+write) miss cycles
system.cpu1.dcache.overall_miss_latency::.cpu1.data   4542871914                       # number of overall miss cycles
system.cpu1.dcache.overall_miss_latency::total   4542871914                       # number of overall miss cycles
system.cpu1.dcache.demand_accesses::.cpu1.data      3515206                       # number of demand (read+write) accesses
system.cpu1.dcache.demand_accesses::total      3515206                       # number of demand (read+write) accesses
system.cpu1.dcache.overall_accesses::.cpu1.data      3515206                       # number of overall (read+write) accesses
system.cpu1.dcache.overall_accesses::total      3515206                       # number of overall (read+write) accesses
system.cpu1.dcache.demand_miss_rate::.cpu1.data     0.111513                       # miss rate for demand accesses
system.cpu1.dcache.demand_miss_rate::total     0.111513                       # miss rate for demand accesses
system.cpu1.dcache.overall_miss_rate::.cpu1.data     0.111513                       # miss rate for overall accesses
system.cpu1.dcache.overall_miss_rate::total     0.111513                       # miss rate for overall accesses
system.cpu1.dcache.demand_avg_miss_latency::.cpu1.data 11589.254609                       # average overall miss latency
system.cpu1.dcache.demand_avg_miss_latency::total 11589.254609                       # average overall miss latency
system.cpu1.dcache.overall_avg_miss_latency::.cpu1.data 11589.254609                       # average overall miss latency
system.cpu1.dcache.overall_avg_miss_latency::total 11589.254609                       # average overall miss latency
system.cpu1.dcache.blocked_cycles::no_mshrs            0                       # number of cycles access was blocked
system.cpu1.dcache.blocked_cycles::no_targets            0                       # number of cycles access was blocked
system.cpu1.dcache.blocked::no_mshrs                0                       # number of cycles access was blocked
system.cpu1.dcache.blocked::no_targets              0                       # number of cycles access was blocked
system.cpu1.dcache.avg_blocked_cycles::no_mshrs          nan                       # average number of cycles each access was blocked
system.cpu1.dcache.avg_blocked_cycles::no_targets          nan                       # average number of cycles each access was blocked
system.cpu1.dcache.writebacks::.writebacks       227950                       # number of writebacks
system.cpu1.dcache.writebacks::total           227950                       # number of writebacks
system.cpu1.dcache.demand_mshr_misses::.cpu1.data       391990                       # number of demand (read+write) MSHR misses
system.cpu1.dcache.demand_mshr_misses::total       391990                       # number of demand (read+write) MSHR misses
system.cpu1.dcache.overall_mshr_misses::.cpu1.data       391990                       # number of overall MSHR misses
system.cpu1.dcache.overall_mshr_misses::total       391990                       # number of overall MSHR misses
system.cpu1.dcache.demand_mshr_miss_latency::.cpu1.data   4281806574                       # number of demand (read+write) MSHR miss cycles
system.cpu1.dcache.demand_mshr_miss_latency::total   4281806574                       # number of demand (read+write) MSHR miss cycles
system.cpu1.dcache.overall_mshr_miss_latency::.cpu1.data   4281806574                       # number of overall MSHR miss cycles
system.cpu1.dcache.overall_mshr_miss_latency::total   4281806574                       # number of overall MSHR miss cycles
system.cpu1.dcache.demand_mshr_miss_rate::.cpu1.data     0.111513                       # mshr miss rate for demand accesses
system.cpu1.dcache.demand_mshr_miss_rate::total     0.111513                       # mshr miss rate for demand accesses
system.cpu1.dcache.overall_mshr_miss_rate::.cpu1.data     0.111513                       # mshr miss rate for overall accesses
system.cpu1.dcache.overall_mshr_miss_rate::total     0.111513                       # mshr miss rate for overall accesses
system.cpu1.dcache.demand_avg_mshr_miss_latency::.cpu1.data 10923.254609                       # average overall mshr miss latency
system.cpu1.dcache.demand_avg_mshr_miss_latency::total 10923.254609                       # average overall mshr miss latency
system.cpu1.dcache.overall_avg_mshr_miss_latency::.cpu1.data 10923.254609                       # average overall mshr miss latency
system.cpu1.dcache.overall_avg_mshr_miss_latency::total 10923.254609                       # average overall mshr miss latency
system.cpu1.dcache.replacements                391982                       # number of replacements
system.cpu1.dcache.ReadReq_hits::.cpu1.data      1826732                       # number of ReadReq hits
system.cpu1.dcache.ReadReq_hits::total        1826732                       # number of ReadReq hits
system.cpu1.dcache.ReadReq_misses::.cpu1.data       363356                       # number of ReadReq misses
system.cpu1.dcache.ReadReq_misses::total       363356                       # number of ReadReq misses
system.cpu1.dcache.ReadReq_miss_latency::.cpu1.data   3946366017                       # number of ReadReq miss cycles
system.cpu1.dcache.ReadReq_miss_latency::total   3946366017                       # number of ReadReq miss cycles
system.cpu1.dcache.ReadReq_accesses::.cpu1.data      2190088                       # number of ReadReq accesses(hits+misses)
system.cpu1.dcache.ReadReq_accesses::total      2190088                       # number of ReadReq accesses(hits+misses)
system.cpu1.dcache.ReadReq_miss_rate::.cpu1.data     0.165909                       # miss rate for ReadReq accesses
system.cpu1.dcache.ReadReq_miss_rate::total     0.165909                       # miss rate for ReadReq accesses
system.cpu1.dcache.ReadReq_avg_miss_latency::.cpu1.data 10860.880285                       # average ReadReq miss latency
system.cpu1.dcache.ReadReq_avg_miss_latency::total 10860.880285                       # average ReadReq miss latency
system.cpu1.dcache.ReadReq_mshr_misses::.cpu1.data       363356                       # number of ReadReq MSHR misses
system.cpu1.dcache.ReadReq_mshr_misses::total       363356                       # number of ReadReq MSHR misses
system.cpu1.dcache.ReadReq_mshr_miss_latency::.cpu1.data   3704370921                       # number of ReadReq MSHR miss cycles
system.cpu1.dcache.ReadReq_mshr_miss_latency::total   3704370921                       # number of ReadReq MSHR miss cycles
system.cpu1.dcache.ReadReq_mshr_miss_rate::.cpu1.data     0.165909                       # mshr miss rate for ReadReq accesses
system.cpu1.dcache.ReadReq_mshr_miss_rate::total     0.165909                       # mshr miss rate for ReadReq accesses
system.cpu1.dcache.ReadReq_avg_mshr_miss_latency::.cpu1.data 10194.880285                       # average ReadReq mshr miss latency
system.cpu1.dcache.ReadReq_avg_mshr_miss_latency::total 10194.880285                       # average ReadReq mshr miss latency
system.cpu1.dcache.WriteReq_hits::.cpu1.data      1296484                       # number of WriteReq hits
system.cpu1.dcache.WriteReq_hits::total       1296484                       # number of WriteReq hits
system.cpu1.dcache.WriteReq_misses::.cpu1.data        28634                       # number of WriteReq misses
system.cpu1.dcache.WriteReq_misses::total        28634                       # number of WriteReq misses
[...]
system.mem_ctrls.wrQLenPdf::120                     0                       # What write queue length does an incoming req see
system.mem_ctrls.wrQLenPdf::121                     0                       # What write queue length does an incoming req see
system.mem_ctrls.wrQLenPdf::122                     0                       # What write queue length does an incoming req see
system.mem_ctrls.wrQLenPdf::123                     0                       # What write queue length does an incoming req see
system.mem_ctrls.wrQLenPdf::124                     0                       # What write queue length does an incoming req see
system.mem_ctrls.wrQLenPdf::125                     0                       # What write queue length does an incoming req see
system.mem_ctrls.wrQLenPdf::126                     0                       # What write queue length does an incoming req see
system.mem_ctrls.wrQLenPdf::127                     0                       # What write queue length does an incoming req see
system.mem_ctrls.bytesPerActivate::samples      5869341                       # Bytes accessed per row activation
system.mem_ctrls.bytesPerActivate::mean            64                       # Bytes accessed per row activation
system.mem_ctrls.bytesPerActivate::gmean    64.000000                       # Bytes accessed per row activation
system.mem_ctrls.bytesPerActivate::64-71      5869341    100.00%    100.00% # Bytes accessed per row activation
system.mem_ctrls.bytesPerActivate::total      5869341                       # Bytes accessed per row activation
system.mem_ctrls.rdPerTurnAround::samples          280                       # Reads before turning the bus around for writes
system.mem_ctrls.rdPerTurnAround::mean    6071.271429                       # Reads before turning the bus around for writes
system.mem_ctrls.rdPerTurnAround::gmean   1789.132175                       # Reads before turning the bus around for writes
system.mem_ctrls.rdPerTurnAround::stdev  21435.829756                       # Reads before turning the bus around for writes
system.mem_ctrls.rdPerTurnAround::0-4095          206     73.57%     73.57% # Reads before turning the bus around for writes
system.mem_ctrls.rdPerTurnAround::4096-8191           47     16.79%     90.36% # Reads before turning the bus around for writes
system.mem_ctrls.rdPerTurnAround::8192-12287            6      2.14%     92.50% # Reads before turning the bus around for writes
system.mem_ctrls.rdPerTurnAround::12288-16383            6      2.14%     94.64% # Reads before turning the bus around for writes
system.mem_ctrls.rdPerTurnAround::16384-20479            3      1.07%     95.71% # Reads before turning the bus around for writes
system.mem_ctrls.rdPerTurnAround::20480-24575            2      0.71%     96.43% # Reads before turning the bus around for writes
system.mem_ctrls.rdPerTurnAround::32768-36863            2      0.71%     97.14% # Reads before turning the bus around for writes
system.mem_ctrls.rdPerTurnAround::36864-40959            2      0.71%     97.86% # Reads before turning the bus around for writes
system.mem_ctrls.rdPerTurnAround::40960-45055            1      0.36%     98.21% # Reads before turning the bus around for writes
system.mem_ctrls.rdPerTurnAround::53248-57343            1      0.36%     98.57% # Reads before turning the bus around for writes
system.mem_ctrls.rdPerTurnAround::65536-69631            1      0.36%     98.93% # Reads before turning the bus around for writes
system.mem_ctrls.rdPerTurnAround::126976-131071            1      0.36%     99.29% # Reads before turning the bus around for writes
system.mem_ctrls.rdPerTurnAround::192512-196607            1      0.36%     99.64% # Reads before turning the bus around for writes
system.mem_ctrls.rdPerTurnAround::249856-253951            1      0.36%    100.00% # Reads before turning the bus around for writes
system.mem_ctrls.rdPerTurnAround::total           280                       # Reads before turning the bus around for writes
system.mem_ctrls.wrPerTurnAround::samples          280                       # Writes before turning the bus around for reads
system.mem_ctrls.wrPerTurnAround::mean             18                       # Writes before turning the bus around for reads
system.mem_ctrls.wrPerTurnAround::gmean     18.000000                       # Writes before turning the bus around for reads
system.mem_ctrls.wrPerTurnAround::18              280    100.00%    100.00% # Writes before turning the bus around for reads
system.mem_ctrls.wrPerTurnAround::total           280                       # Writes before turning the bus around for reads
system.mem_ctrls.bytesReadDRAM              375315264                       # Total number of bytes read from DRAM
system.mem_ctrls.bytesReadWrQ                   17344                       # Total number of bytes read from write queue
system.mem_ctrls.bytesWritten                  322560                       # Total number of bytes written to DRAM
system.mem_ctrls.bytesReadSys               375332608                       # Total read bytes from the system interface side
system.mem_ctrls.bytesWrittenSys               342144                       # Total written bytes from the system interface side
system.mem_ctrls.avgRdBW                       205.09                       # Average DRAM read bandwidth in MiByte/s
system.mem_ctrls.avgWrBW                         0.18                       # Average achieved write bandwidth in MiByte/s
system.mem_ctrls.avgRdBWSys                    205.10                       # Average system read bandwidth in MiByte/s
system.mem_ctrls.avgWrBWSys                      0.19                       # Average system write bandwidth in MiByte/s
system.mem_ctrls.peakBW                      19207.00                       # Theoretical peak bandwidth in MiByte/s
system.mem_ctrls.busUtil                         1.07                       # Data bus utilization in percentage
system.mem_ctrls.busUtilRead                     1.07                       # Data bus utilization in percentage for reads
system.mem_ctrls.busUtilWrite                    0.00                       # Data bus utilization in percentage for writes
system.mem_ctrls.totGap                  1829968783416                       # Total gap between requests
system.mem_ctrls.avgGap                     311753.72                       # Average gap between requests
system.mem_ctrls.masterReadBytes::.cpu0.inst        28928                       # Per-master bytes read from memory
system.mem_ctrls.masterReadBytes::.cpu0.data    374653568                       # Per-master bytes read from memory
system.mem_ctrls.masterReadBytes::.cpu1.inst       161088                       # Per-master bytes read from memory
system.mem_ctrls.masterReadBytes::.cpu1.data       471680                       # Per-master bytes read from memory
system.mem_ctrls.masterWriteBytes::.writebacks       322560                       # Per-master bytes write to memory
system.mem_ctrls.masterReadRate::.cpu0.inst 15807.913070812390                       # Per-master bytes read from memory rate (Bytes/sec)
system.mem_ctrls.masterReadRate::.cpu0.data 204732129.238581955433                       # Per-master bytes read from memory rate (Bytes/sec)
system.mem_ctrls.masterReadRate::.cpu1.inst 88027.692918661036                       # Per-master bytes read from memory rate (Bytes/sec)
system.mem_ctrls.masterReadRate::.cpu1.data 257752.918875856878                       # Per-master bytes read from memory rate (Bytes/sec)
system.mem_ctrls.masterWriteRate::.writebacks 176265.225391359389                       # Per-master bytes write to memory rate (Bytes/sec)
system.mem_ctrls.masterReadAccesses::.cpu0.inst          452                       # Per-master read serviced memory accesses
system.mem_ctrls.masterReadAccesses::.cpu0.data      5854233                       # Per-master read serviced memory accesses
system.mem_ctrls.masterReadAccesses::.cpu1.inst         2517                       # Per-master read serviced memory accesses
system.mem_ctrls.masterReadAccesses::.cpu1.data         7370                       # Per-master read serviced memory accesses
system.mem_ctrls.masterWriteAccesses::.writebacks         5346                       # Per-master write serviced memory accesses
system.mem_ctrls.masterReadTotalLat::.cpu0.inst     16359433                       # Per-master read total memory access latency
system.mem_ctrls.masterReadTotalLat::.cpu0.data 227165321263                       # Per-master read total memory access latency
system.mem_ctrls.masterReadTotalLat::.cpu1.inst     92383271                       # Per-master read total memory access latency
system.mem_ctrls.masterReadTotalLat::.cpu1.data    281708868                       # Per-master read total memory access latency
system.mem_ctrls.masterWriteTotalLat::.writebacks 21421891596735                       # Per-master write total memory access latency
system.mem_ctrls.masterReadAvgLat::.cpu0.inst     36193.44                       # Per-master read average memory access latency
system.mem_ctrls.masterReadAvgLat::.cpu0.data     38803.60                       # Per-master read average memory access latency
system.mem_ctrls.masterReadAvgLat::.cpu1.inst     36703.72                       # Per-master read average memory access latency
system.mem_ctrls.masterReadAvgLat::.cpu1.data     38223.73                       # Per-master read average memory access latency
system.mem_ctrls.masterWriteAvgLat::.writebacks 4007087840.77                       # Per-master write average memory access latency
system.mem_ctrls.pageHitRate                     0.00                       # Row buffer hit rate, read and write combined
system.mem_ctrls.rank1.actEnergy         4576247728.417690                       # Energy for activate commands per rank (pJ)
system.mem_ctrls.rank1.preEnergy         8078837335.924287                       # Energy for precharge commands per rank (pJ)
system.mem_ctrls.rank1.readEnergy        8042743903.113465                       # Energy for read commands per rank (pJ)
system.mem_ctrls.rank1.writeEnergy       5812713.984000                       # Energy for write commands per rank (pJ)
system.mem_ctrls.rank1.refreshEnergy     158851736667.150665                       # Energy for refresh commands per rank (pJ)
system.mem_ctrls.rank1.actBackEnergy     81767161769.442444                       # Energy for active background per rank (pJ)
system.mem_ctrls.rank1.preBackEnergy     540853674183.002380                       # Energy for precharge background per rank (pJ)
system.mem_ctrls.rank1.actPowerDownEnergy            0                       # Energy for active power-down per rank (pJ)
system.mem_ctrls.rank1.prePowerDownEnergy            0                       # Energy for precharge power-down per rank (pJ)
system.mem_ctrls.rank1.selfRefreshEnergy            0                       # Energy for self refresh per rank (pJ)
system.mem_ctrls.rank1.totalEnergy       802176214300.762939                       # Total energy per rank (pJ)
system.mem_ctrls.rank1.averagePower        438.354945                       # Core power per rank (mW)
system.mem_ctrls.rank1.totalIdleTime                0                       # Total Idle time Per DRAM Rank
system.mem_ctrls.rank1.memoryStateTime::IDLE 1612353278566                       # Time in different power states
system.mem_ctrls.rank1.memoryStateTime::REF  82263300000                       # Time in different power states
system.mem_ctrls.rank1.memoryStateTime::SREF            0                       # Time in different power states
system.mem_ctrls.rank1.memoryStateTime::PRE_PDN            0                       # Time in different power states
system.mem_ctrls.rank1.memoryStateTime::ACT 135352998722                       # Time in different power states
system.mem_ctrls.rank1.memoryStateTime::ACT_PDN            0                       # Time in different power states
system.mem_ctrls.rank0.actEnergy         4576261762.801742                       # Energy for activate commands per rank (pJ)
system.mem_ctrls.rank0.preEnergy         8078862112.010024                       # Energy for precharge commands per rank (pJ)
system.mem_ctrls.rank0.readEnergy        8042461384.166287                       # Energy for read commands per rank (pJ)
system.mem_ctrls.rank0.writeEnergy       6076928.256000                       # Energy for write commands per rank (pJ)
system.mem_ctrls.rank0.refreshEnergy     158851736667.150665                       # Energy for refresh commands per rank (pJ)
system.mem_ctrls.rank0.actBackEnergy     81765084644.626160                       # Energy for active background per rank (pJ)
system.mem_ctrls.rank0.preBackEnergy     540855108137.188477                       # Energy for precharge background per rank (pJ)
system.mem_ctrls.rank0.actPowerDownEnergy            0                       # Energy for active power-down per rank (pJ)
system.mem_ctrls.rank0.prePowerDownEnergy            0                       # Energy for precharge power-down per rank (pJ)
system.mem_ctrls.rank0.selfRefreshEnergy            0                       # Energy for self refresh per rank (pJ)
system.mem_ctrls.rank0.totalEnergy       802175591635.920044                       # Total energy per rank (pJ)
system.mem_ctrls.rank0.averagePower        438.354605                       # Core power per rank (mW)
system.mem_ctrls.rank0.totalIdleTime                0                       # Total Idle time Per DRAM Rank
system.mem_ctrls.rank0.memoryStateTime::IDLE 1612359164528                       # Time in different power states
system.mem_ctrls.rank0.memoryStateTime::REF  82263300000                       # Time in different power states
system.mem_ctrls.rank0.memoryStateTime::SREF            0                       # Time in different power states
system.mem_ctrls.rank0.memoryStateTime::PRE_PDN            0                       # Time in different power states
system.mem_ctrls.rank0.memoryStateTime::ACT 135347112760                       # Time in different power states
system.mem_ctrls.rank0.memoryStateTime::ACT_PDN            0                       # Time in different power states
system.cpu_clk_domain.clock                       333                       # Clock period in ticks
system.tol2bus.pwrStateResidencyTicks::UNDEFINED 1829969577288                       # Cumulative time (in ticks) in various power states
system.tol2bus.trans_dist::ReadResp          12869559                       # Transaction distribution
system.tol2bus.trans_dist::WritebackDirty       235419                       # Transaction distribution
system.tol2bus.trans_dist::WritebackClean         3336                       # Transaction distribution
system.tol2bus.trans_dist::CleanEvict        18262032                       # Transaction distribution
system.tol2bus.trans_dist::ReadExReq            29713                       # Transaction distribution
system.tol2bus.trans_dist::ReadExResp           29713                       # Transaction distribution
system.tol2bus.trans_dist::ReadCleanReq          4261                       # Transaction distribution
system.tol2bus.trans_dist::ReadSharedReq     12865298                       # Transaction distribution
system.tol2bus.pkt_count_system.cpu0.icache.mem_side::system.l2.cpu_side          946                       # Packet count per connected master and slave (bytes)
system.tol2bus.pkt_count_system.cpu0.dcache.mem_side::system.l2.cpu_side     37509055                       # Packet count per connected master and slave (bytes)
system.tol2bus.pkt_count_system.cpu1.icache.mem_side::system.l2.cpu_side        10912                       # Packet count per connected master and slave (bytes)
system.tol2bus.pkt_count_system.cpu1.dcache.mem_side::system.l2.cpu_side      1175962                       # Packet count per connected master and slave (bytes)
system.tol2bus.pkt_count::total              38696875                       # Packet count per connected master and slave (bytes)
system.tol2bus.pkt_size_system.cpu0.icache.mem_side::system.l2.cpu_side        31552                       # Cumulative packet size per connected master and slave (bytes)
system.tol2bus.pkt_size_system.cpu0.dcache.mem_side::system.l2.cpu_side    800329216                       # Cumulative packet size per connected master and slave (bytes)
system.tol2bus.pkt_size_system.cpu1.icache.mem_side::system.l2.cpu_side       454656                       # Cumulative packet size per connected master and slave (bytes)
system.tol2bus.pkt_size_system.cpu1.dcache.mem_side::system.l2.cpu_side     39676160                       # Cumulative packet size per connected master and slave (bytes)
system.tol2bus.pkt_size::total              840491584                       # Cumulative packet size per connected master and slave (bytes)
system.tol2bus.snoops                         5602456                       # Total snoops (count)
system.tol2bus.snoopTraffic                    342144                       # Total snoop traffic (bytes)
system.tol2bus.snoop_fanout::samples         18501728                       # Request fanout histogram
system.tol2bus.snoop_fanout::mean            0.000052                       # Request fanout histogram
system.tol2bus.snoop_fanout::stdev           0.007207                       # Request fanout histogram
system.tol2bus.snoop_fanout::underflows             0      0.00%      0.00% # Request fanout histogram
system.tol2bus.snoop_fanout::0               18500767     99.99%     99.99% # Request fanout histogram
system.tol2bus.snoop_fanout::1                    961      0.01%    100.00% # Request fanout histogram
system.tol2bus.snoop_fanout::2                      0      0.00%    100.00% # Request fanout histogram
system.tol2bus.snoop_fanout::3                      0      0.00%    100.00% # Request fanout histogram
system.tol2bus.snoop_fanout::4                      0      0.00%    100.00% # Request fanout histogram
system.tol2bus.snoop_fanout::5                      0      0.00%    100.00% # Request fanout histogram
system.tol2bus.snoop_fanout::6                      0      0.00%    100.00% # Request fanout histogram
system.tol2bus.snoop_fanout::7                      0      0.00%    100.00% # Request fanout histogram
system.tol2bus.snoop_fanout::8                      0      0.00%    100.00% # Request fanout histogram
system.tol2bus.snoop_fanout::overflows              0      0.00%    100.00% # Request fanout histogram
system.tol2bus.snoop_fanout::min_value              0                       # Request fanout histogram
system.tol2bus.snoop_fanout::max_value              1                       # Request fanout histogram
system.tol2bus.snoop_fanout::total           18501728                       # Request fanout histogram
system.tol2bus.reqLayer0.occupancy         8746052193                       # Layer occupancy (ticks)
system.tol2bus.reqLayer0.utilization              0.5                       # Layer utilization (%)
system.tol2bus.respLayer5.occupancy         391598342                       # Layer occupancy (ticks)
system.tol2bus.respLayer5.utilization             0.0                       # Layer utilization (%)
system.tol2bus.respLayer4.occupancy           3804524                       # Layer occupancy (ticks)
system.tol2bus.respLayer4.utilization             0.0                       # Layer utilization (%)
system.tol2bus.respLayer1.occupancy       12490741083                       # Layer occupancy (ticks)
system.tol2bus.respLayer1.utilization             0.7                       # Layer utilization (%)
system.tol2bus.respLayer0.occupancy            452547                       # Layer occupancy (ticks)
system.tol2bus.respLayer0.utilization             0.0                       # Layer utilization (%)

---------- End Simulation Statistics   ----------
