gem5 Simulator System.  http://gem5.org
gem5 is copyrighted software; use the --copyright option for details.

gem5 compiled Dec 20 2024 16:10:06
gem5 started Dec 31 2024 11:17:16
gem5 executing on computenode3, pid 3995540
command line: /home/nimish/mirage/perf_analysis/gem5/build/X86/gem5.opt --outdir ./stats/stat_1282 /home/nimish/mirage/perf_analysis/gem5/configs/example/spec06_config_multiprogram.py --benchmark=specrand_i --num-cpus=1 --mem-size=8GB --mem-type=DDR4_2400_8x8 --cpu-type TimingSimpleCPU --caches --l2cache --l1d_size=512B --l1i_size=32kB --l2_size=16MB --l1d_assoc=8 --l1i_assoc=8 --l2_assoc=16 --mirage_mode=scatter-cache --l2_numSkews=2 --l2_TDR=1.75 --l2_EncrLat=3 --prog-interval=300Hz

Workload-0: 
['/home/nimish/mirage/AES_TBOX/C/build/AES-TBOX']
Global frequency set at 1000000000000 ticks per second
CWD: /home/nimish/mirage
      0: system.l2.tags.indexing_policy: Size of Tag-Store for Skewed-Assoc-Randomized - Sets:16384, with Assoc:16 
**** REAL SIMULATION ****
3333333333: Event_86: system.cpu progress event, total committed:3146720, progress insts committed: 3146720, IPC: 0.314357
6666666666: Event_86: system.cpu progress event, total committed:5859389, progress insts committed: 2712669, IPC: 0.270996
9999999999: Event_86: system.cpu progress event, total committed:8572016, progress insts committed: 2712627, IPC: 0.270991
13333333332: Event_86: system.cpu progress event, total committed:11284649, progress insts committed: 2712633, IPC: 0.270992
16666666665: Event_86: system.cpu progress event, total committed:13997296, progress insts committed: 2712647, IPC: 0.270993
19999999998: Event_86: system.cpu progress event, total committed:16709984, progress insts committed: 2712688, IPC: 0.270998
23333333331: Event_86: system.cpu progress event, total committed:19422632, progress insts committed: 2712648, IPC: 0.270994
26666666664: Event_86: system.cpu progress event, total committed:22135184, progress insts committed: 2712552, IPC: 0.270984
29999999997: Event_86: system.cpu progress event, total committed:24847677, progress insts committed: 2712493, IPC: 0.270978
33333333330: Event_86: system.cpu progress event, total committed:27560308, progress insts committed: 2712631, IPC: 0.270992
36666666663: Event_86: system.cpu progress event, total committed:30272935, progress insts committed: 2712627, IPC: 0.270991
39999999996: Event_86: system.cpu progress event, total committed:32985584, progress insts committed: 2712649, IPC: 0.270994
43333333329: Event_86: system.cpu progress event, total committed:35698272, progress insts committed: 2712688, IPC: 0.270998
46666666662: Event_86: system.cpu progress event, total committed:38410930, progress insts committed: 2712658, IPC: 0.270995
49999999995: Event_86: system.cpu progress event, total committed:41123557, progress insts committed: 2712627, IPC: 0.270991
53333333328: Event_86: system.cpu progress event, total committed:43835984, progress insts committed: 2712427, IPC: 0.270971
56666666661: Event_86: system.cpu progress event, total committed:46548598, progress insts committed: 2712614, IPC: 00.27099
59999999994: Event_86: system.cpu progress event, total committed:49261226, progress insts committed: 2712628, IPC: 0.270992
63333333327: Event_86: system.cpu progress event, total committed:51973872, progress insts committed: 2712646, IPC: 0.270993
66666666660: Event_86: system.cpu progress event, total committed:54686560, progress insts committed: 2712688, IPC: 0.270998
69999999993: Event_86: system.cpu progress event, total committed:57399215, progress insts committed: 2712655, IPC: 0.270994
73333333326: Event_86: system.cpu progress event, total committed:60111843, progress insts committed: 2712628, IPC: 0.270992
76666666659: Event_86: system.cpu progress event, total committed:62824470, progress insts committed: 2712627, IPC: 0.270991
79999999992: Event_86: system.cpu progress event, total committed:65536889, progress insts committed: 2712419, IPC: 0.270971
83333333325: Event_86: system.cpu progress event, total committed:68249513, progress insts committed: 2712624, IPC: 0.270991
86666666658: Event_86: system.cpu progress event, total committed:70962160, progress insts committed: 2712647, IPC: 0.270993
89999999991: Event_86: system.cpu progress event, total committed:73674848, progress insts committed: 2712688, IPC: 0.270998
93333333324: Event_86: system.cpu progress event, total committed:76387509, progress insts committed: 2712661, IPC: 0.270995
96666666657: Event_86: system.cpu progress event, total committed:79100134, progress insts committed: 2712625, IPC: 0.270991
99999999990: Event_86: system.cpu progress event, total committed:81812761, progress insts committed: 2712627, IPC: 0.270991
103333333323: Event_86: system.cpu progress event, total committed:84525424, progress insts committed: 2712663, IPC: 0.270995
106666666656: Event_86: system.cpu progress event, total committed:87237804, progress insts committed: 2712380, IPC: 0.270967
109999999989: Event_86: system.cpu progress event, total committed:89950448, progress insts committed: 2712644, IPC: 0.270993
113333333322: Event_86: system.cpu progress event, total committed:92663136, progress insts committed: 2712688, IPC: 0.270998
116666666655: Event_86: system.cpu progress event, total committed:95375797, progress insts committed: 2712661, IPC: 0.270995
119999999988: Event_86: system.cpu progress event, total committed:98088422, progress insts committed: 2712625, IPC: 0.270991
123333333321: Event_86: system.cpu progress event, total committed:100801049, progress insts committed: 2712627, IPC: 0.270991
126666666654: Event_86: system.cpu progress event, total committed:103513712, progress insts committed: 2712663, IPC: 0.270995
129999999987: Event_86: system.cpu progress event, total committed:106226400, progress insts committed: 2712688, IPC: 0.270998
133333333320: Event_86: system.cpu progress event, total committed:108938736, progress insts committed: 2712336, IPC: 0.270962
136666666653: Event_86: system.cpu progress event, total committed:111651424, progress insts committed: 2712688, IPC: 0.270998
139999999986: Event_86: system.cpu progress event, total committed:114364087, progress insts committed: 2712663, IPC: 0.270995
143333333319: Event_86: system.cpu progress event, total committed:117076713, progress insts committed: 2712626, IPC: 0.270991
146666666652: Event_86: system.cpu progress event, total committed:119789338, progress insts committed: 2712625, IPC: 0.270991
149999999985: Event_86: system.cpu progress event, total committed:122502000, progress insts committed: 2712662, IPC: 0.270995
153333333318: Event_86: system.cpu progress event, total committed:125214688, progress insts committed: 2712688, IPC: 0.270998
156666666651: Event_86: system.cpu progress event, total committed:127927332, progress insts committed: 2712644, IPC: 0.270993
159999999984: Event_86: system.cpu progress event, total committed:130639712, progress insts committed: 2712380, IPC: 0.270967
163333333317: Event_86: system.cpu progress event, total committed:133352375, progress insts committed: 2712663, IPC: 0.270995
166666666650: Event_86: system.cpu progress event, total committed:136065000, progress insts committed: 2712625, IPC: 0.270991
169999999983: Event_86: system.cpu progress event, total committed:138777627, progress insts committed: 2712627, IPC: 0.270991
173333333316: Event_86: system.cpu progress event, total committed:141490288, progress insts committed: 2712661, IPC: 0.270995
176666666649: Event_86: system.cpu progress event, total committed:144202976, progress insts committed: 2712688, IPC: 0.270998
179999999982: Event_86: system.cpu progress event, total committed:146915621, progress insts committed: 2712645, IPC: 0.270993
183333333315: Event_86: system.cpu progress event, total committed:149628176, progress insts committed: 2712555, IPC: 0.270984
186666666648: Event_86: system.cpu progress event, total committed:152340666, progress insts committed: 2712490, IPC: 0.270978
189999999981: Event_86: system.cpu progress event, total committed:155053291, progress insts committed: 2712625, IPC: 0.270991
193333333314: Event_86: system.cpu progress event, total committed:157765921, progress insts committed: 2712630, IPC: 0.270992
196666666647: Event_86: system.cpu progress event, total committed:160478576, progress insts committed: 2712655, IPC: 0.270994
199999999980: Event_86: system.cpu progress event, total committed:163191264, progress insts committed: 2712688, IPC: 0.270998
203333333313: Event_86: system.cpu progress event, total committed:165903911, progress insts committed: 2712647, IPC: 0.270993
206666666646: Event_86: system.cpu progress event, total committed:168616541, progress insts committed: 2712630, IPC: 0.270992
209999999979: Event_86: system.cpu progress event, total committed:171328976, progress insts committed: 2712435, IPC: 0.270972
213333333312: Event_86: system.cpu progress event, total committed:174041579, progress insts committed: 2712603, IPC: 0.270989
216666666645: Event_86: system.cpu progress event, total committed:176754209, progress insts committed: 2712630, IPC: 0.270992
219999999978: Event_86: system.cpu progress event, total committed:179466864, progress insts committed: 2712655, IPC: 0.270994
223333333311: Event_86: system.cpu progress event, total committed:182179552, progress insts committed: 2712688, IPC: 0.270998
226666666644: Event_86: system.cpu progress event, total committed:184892199, progress insts committed: 2712647, IPC: 0.270993
229999999977: Event_86: system.cpu progress event, total committed:187604823, progress insts committed: 2712624, IPC: 0.270991
233333333310: Event_86: system.cpu progress event, total committed:190317454, progress insts committed: 2712631, IPC: 0.270992
236666666643: Event_86: system.cpu progress event, total committed:193029868, progress insts committed: 2712414, IPC: 00.27097
239999999976: Event_86: system.cpu progress event, total committed:195742497, progress insts committed: 2712629, IPC: 0.270992
243333333309: Event_86: system.cpu progress event, total committed:198455152, progress insts committed: 2712655, IPC: 0.270994
246666666642: Event_86: system.cpu progress event, total committed:201167840, progress insts committed: 2712688, IPC: 0.270998
249999999975: Event_86: system.cpu progress event, total committed:203880488, progress insts committed: 2712648, IPC: 0.270994
253333333308: Event_86: system.cpu progress event, total committed:206593120, progress insts committed: 2712632, IPC: 0.270992
256666666641: Event_86: system.cpu progress event, total committed:209305746, progress insts committed: 2712626, IPC: 0.270991
259999999974: Event_86: system.cpu progress event, total committed:212018416, progress insts committed: 2712670, IPC: 0.270996
263333333307: Event_86: system.cpu progress event, total committed:214730786, progress insts committed: 2712370, IPC: 0.270966
266666666640: Event_86: system.cpu progress event, total committed:217443440, progress insts committed: 2712654, IPC: 0.270994
269999999973: Event_86: system.cpu progress event, total committed:220156128, progress insts committed: 2712688, IPC: 0.270998
273333333306: Event_86: system.cpu progress event, total committed:222868777, progress insts committed: 2712649, IPC: 0.270994
276666666639: Event_86: system.cpu progress event, total committed:225581405, progress insts committed: 2712628, IPC: 0.270992
279999999972: Event_86: system.cpu progress event, total committed:228294034, progress insts committed: 2712629, IPC: 0.270992
283333333305: Event_86: system.cpu progress event, total committed:231006704, progress insts committed: 2712670, IPC: 0.270996
286666666638: Event_86: system.cpu progress event, total committed:233719392, progress insts committed: 2712688, IPC: 0.270998
289999999971: Event_86: system.cpu progress event, total committed:236431728, progress insts committed: 2712336, IPC: 0.270962
293333333304: Event_86: system.cpu progress event, total committed:239144416, progress insts committed: 2712688, IPC: 0.270998
296666666637: Event_86: system.cpu progress event, total committed:241857068, progress insts committed: 2712652, IPC: 0.270994
299999999970: Event_86: system.cpu progress event, total committed:244569699, progress insts committed: 2712631, IPC: 0.270992
303333333303: Event_86: system.cpu progress event, total committed:247282324, progress insts committed: 2712625, IPC: 0.270991
306666666636: Event_86: system.cpu progress event, total committed:249994992, progress insts committed: 2712668, IPC: 0.270996
309999999969: Event_86: system.cpu progress event, total committed:252707680, progress insts committed: 2712688, IPC: 0.270998
313333333302: Event_86: system.cpu progress event, total committed:255420314, progress insts committed: 2712634, IPC: 0.270992
316666666635: Event_86: system.cpu progress event, total committed:258132704, progress insts committed: 2712390, IPC: 0.270968
319999999968: Event_86: system.cpu progress event, total committed:260845359, progress insts committed: 2712655, IPC: 0.270994
323333333301: Event_86: system.cpu progress event, total committed:263557987, progress insts committed: 2712628, IPC: 0.270992
326666666634: Event_86: system.cpu progress event, total committed:266270612, progress insts committed: 2712625, IPC: 0.270991
329999999967: Event_86: system.cpu progress event, total committed:268983280, progress insts committed: 2712668, IPC: 0.270996
333333333300: Event_86: system.cpu progress event, total committed:271695968, progress insts committed: 2712688, IPC: 0.270998
336666666633: Event_86: system.cpu progress event, total committed:274408607, progress insts committed: 2712639, IPC: 0.270993
339999999966: Event_86: system.cpu progress event, total committed:277121168, progress insts committed: 2712561, IPC: 0.270985
343333333299: Event_86: system.cpu progress event, total committed:279833647, progress insts committed: 2712479, IPC: 0.270977
346666666632: Event_86: system.cpu progress event, total committed:282546277, progress insts committed: 2712630, IPC: 0.270992
349999999965: Event_86: system.cpu progress event, total committed:285258902, progress insts committed: 2712625, IPC: 0.270991
353333333298: Event_86: system.cpu progress event, total committed:287971568, progress insts committed: 2712666, IPC: 0.270995
356666666631: Event_86: system.cpu progress event, total committed:290684256, progress insts committed: 2712688, IPC: 0.270998
359999999964: Event_86: system.cpu progress event, total committed:293396895, progress insts committed: 2712639, IPC: 0.270993
363333333297: Event_86: system.cpu progress event, total committed:296109522, progress insts committed: 2712627, IPC: 0.270991
366666666630: Event_86: system.cpu progress event, total committed:298821968, progress insts committed: 2712446, IPC: 0.270973
369999999963: Event_86: system.cpu progress event, total committed:301534565, progress insts committed: 2712597, IPC: 0.270988
373333333296: Event_86: system.cpu progress event, total committed:304247191, progress insts committed: 2712626, IPC: 0.270991
376666666629: Event_86: system.cpu progress event, total committed:306959856, progress insts committed: 2712665, IPC: 0.270995
379999999962: Event_86: system.cpu progress event, total committed:309672544, progress insts committed: 2712688, IPC: 0.270998
383333333295: Event_86: system.cpu progress event, total committed:312385186, progress insts committed: 2712642, IPC: 0.270993
386666666628: Event_86: system.cpu progress event, total committed:315097810, progress insts committed: 2712624, IPC: 0.270991
389999999961: Event_86: system.cpu progress event, total committed:317810435, progress insts committed: 2712625, IPC: 0.270991
393333333294: Event_86: system.cpu progress event, total committed:320522854, progress insts committed: 2712419, IPC: 0.270971
396666666627: Event_86: system.cpu progress event, total committed:323235481, progress insts committed: 2712627, IPC: 0.270991
399999999960: Event_86: system.cpu progress event, total committed:325948144, progress insts committed: 2712663, IPC: 0.270995
403333333293: Event_86: system.cpu progress event, total committed:328660832, progress insts committed: 2712688, IPC: 0.270998
406666666626: Event_86: system.cpu progress event, total committed:331373474, progress insts committed: 2712642, IPC: 0.270993
409999999959: Event_86: system.cpu progress event, total committed:334086101, progress insts committed: 2712627, IPC: 0.270991
413333333292: Event_86: system.cpu progress event, total committed:336798732, progress insts committed: 2712631, IPC: 0.270992
416666666625: Event_86: system.cpu progress event, total committed:339511408, progress insts committed: 2712676, IPC: 0.270996
419999999958: Event_86: system.cpu progress event, total committed:342223770, progress insts committed: 2712362, IPC: 0.270965
423333333291: Event_86: system.cpu progress event, total committed:344936432, progress insts committed: 2712662, IPC: 0.270995
426666666624: Event_86: system.cpu progress event, total committed:347649120, progress insts committed: 2712688, IPC: 0.270998
429999999957: Event_86: system.cpu progress event, total committed:350361764, progress insts committed: 2712644, IPC: 0.270993
433333333290: Event_86: system.cpu progress event, total committed:353074389, progress insts committed: 2712625, IPC: 0.270991
436666666623: Event_86: system.cpu progress event, total committed:355787015, progress insts committed: 2712626, IPC: 0.270991
439999999956: Event_86: system.cpu progress event, total committed:358499696, progress insts committed: 2712681, IPC: 0.270997
443333333289: Event_86: system.cpu progress event, total committed:361212384, progress insts committed: 2712688, IPC: 0.270998
446666666622: Event_86: system.cpu progress event, total committed:363924720, progress insts committed: 2712336, IPC: 0.270962
449999999955: Event_86: system.cpu progress event, total committed:366637408, progress insts committed: 2712688, IPC: 0.270998
453333333288: Event_86: system.cpu progress event, total committed:369350052, progress insts committed: 2712644, IPC: 0.270993
456666666621: Event_86: system.cpu progress event, total committed:372169330, progress insts committed: 2819278, IPC: 0.281646
459999999954: Event_86: system.cpu progress event, total committed:375032683, progress insts committed: 2863353, IPC: 0.286049
463333333287: Event_86: system.cpu progress event, total committed:377896043, progress insts committed: 2863360, IPC: 00.28605
466666666620: Event_86: system.cpu progress event, total committed:380759397, progress insts committed: 2863354, IPC: 0.286049
469999999953: Event_86: system.cpu progress event, total committed:383622756, progress insts committed: 2863359, IPC: 00.28605
473333333286: Event_86: system.cpu progress event, total committed:386485835, progress insts committed: 2863079, IPC: 0.286022
476666666619: Event_86: system.cpu progress event, total committed:389349179, progress insts committed: 2863344, IPC: 0.286048
479999999952: Event_86: system.cpu progress event, total committed:392212523, progress insts committed: 2863344, IPC: 0.286048
483333333285: Event_86: system.cpu progress event, total committed:395075867, progress insts committed: 2863344, IPC: 0.286048
486666666618: Event_86: system.cpu progress event, total committed:397939211, progress insts committed: 2863344, IPC: 0.286048
489999999951: Event_86: system.cpu progress event, total committed:400802572, progress insts committed: 2863361, IPC: 00.28605
493333333284: Event_86: system.cpu progress event, total committed:403665925, progress insts committed: 2863353, IPC: 0.286049
496666666617: Event_86: system.cpu progress event, total committed:406529243, progress insts committed: 2863318, IPC: 0.286045
499999999950: Event_86: system.cpu progress event, total committed:409392411, progress insts committed: 2863168, IPC: 00.28603
503333333283: Event_86: system.cpu progress event, total committed:412255755, progress insts committed: 2863344, IPC: 0.286048
506666666616: Event_86: system.cpu progress event, total committed:415119099, progress insts committed: 2863344, IPC: 0.286048
509999999949: Event_86: system.cpu progress event, total committed:417982443, progress insts committed: 2863344, IPC: 0.286048
513333333282: Event_86: system.cpu progress event, total committed:420845787, progress insts committed: 2863344, IPC: 0.286048
516666666615: Event_86: system.cpu progress event, total committed:423709131, progress insts committed: 2863344, IPC: 0.286048
519999999948: Event_86: system.cpu progress event, total committed:426572475, progress insts committed: 2863344, IPC: 0.286048
523333333281: Event_86: system.cpu progress event, total committed:429435643, progress insts committed: 2863168, IPC: 00.28603
526666666614: Event_86: system.cpu progress event, total committed:432298960, progress insts committed: 2863317, IPC: 0.286045
529999999947: Event_86: system.cpu progress event, total committed:435162313, progress insts committed: 2863353, IPC: 0.286049
533333333280: Event_86: system.cpu progress event, total committed:438025672, progress insts committed: 2863359, IPC: 00.28605
536666666613: Event_86: system.cpu progress event, total committed:440889019, progress insts committed: 2863347, IPC: 0.286048
539999999946: Event_86: system.cpu progress event, total committed:443752363, progress insts committed: 2863344, IPC: 0.286048
543333333279: Event_86: system.cpu progress event, total committed:446615707, progress insts committed: 2863344, IPC: 0.286048
546666666612: Event_86: system.cpu progress event, total committed:449479051, progress insts committed: 2863344, IPC: 0.286048
549999999945: Event_86: system.cpu progress event, total committed:452342129, progress insts committed: 2863078, IPC: 0.286021
553333333278: Event_86: system.cpu progress event, total committed:455205483, progress insts committed: 2863354, IPC: 0.286049
556666666611: Event_86: system.cpu progress event, total committed:458068842, progress insts committed: 2863359, IPC: 00.28605
559999999944: Event_86: system.cpu progress event, total committed:460932202, progress insts committed: 2863360, IPC: 00.28605
563333333277: Event_86: system.cpu progress event, total committed:463795555, progress insts committed: 2863353, IPC: 0.286049
566666666610: Event_86: system.cpu progress event, total committed:466658914, progress insts committed: 2863359, IPC: 00.28605
569999999943: Event_86: system.cpu progress event, total committed:469522272, progress insts committed: 2863358, IPC: 0.286049
573333333276: Event_86: system.cpu progress event, total committed:472385627, progress insts committed: 2863355, IPC: 0.286049
576666666609: Event_86: system.cpu progress event, total committed:475248658, progress insts committed: 2863031, IPC: 0.286017
579999999942: Event_86: system.cpu progress event, total committed:478112011, progress insts committed: 2863353, IPC: 0.286049
583333333275: Event_86: system.cpu progress event, total committed:480975371, progress insts committed: 2863360, IPC: 00.28605
586666666608: Event_86: system.cpu progress event, total committed:483838725, progress insts committed: 2863354, IPC: 0.286049
589999999941: Event_86: system.cpu progress event, total committed:486702084, progress insts committed: 2863359, IPC: 00.28605
593333333274: Event_86: system.cpu progress event, total committed:489565444, progress insts committed: 2863360, IPC: 00.28605
596666666607: Event_86: system.cpu progress event, total committed:492428797, progress insts committed: 2863353, IPC: 0.286049
599999999940: Event_86: system.cpu progress event, total committed:495292156, progress insts committed: 2863359, IPC: 00.28605
603333333273: Event_86: system.cpu progress event, total committed:498155195, progress insts committed: 2863039, IPC: 0.286018
606666666606: Event_86: system.cpu progress event, total committed:501018539, progress insts committed: 2863344, IPC: 0.286048
609999999939: Event_86: system.cpu progress event, total committed:503881900, progress insts committed: 2863361, IPC: 00.28605
613333333272: Event_86: system.cpu progress event, total committed:506745253, progress insts committed: 2863353, IPC: 0.286049
616666666605: Event_86: system.cpu progress event, total committed:509608613, progress insts committed: 2863360, IPC: 00.28605
619999999938: Event_86: system.cpu progress event, total committed:512471967, progress insts committed: 2863354, IPC: 0.286049
623333333271: Event_86: system.cpu progress event, total committed:515335326, progress insts committed: 2863359, IPC: 00.28605
626666666604: Event_86: system.cpu progress event, total committed:518198686, progress insts committed: 2863360, IPC: 00.28605
629999999937: Event_86: system.cpu progress event, total committed:521061771, progress insts committed: 2863085, IPC: 0.286022
633333333270: Event_86: system.cpu progress event, total committed:523925115, progress insts committed: 2863344, IPC: 0.286048
636666666603: Event_86: system.cpu progress event, total committed:526788459, progress insts committed: 2863344, IPC: 0.286048
639999999936: Event_86: system.cpu progress event, total committed:529651803, progress insts committed: 2863344, IPC: 0.286048
643333333269: Event_86: system.cpu progress event, total committed:532515147, progress insts committed: 2863344, IPC: 0.286048
646666666602: Event_86: system.cpu progress event, total committed:535378495, progress insts committed: 2863348, IPC: 0.286048
649999999935: Event_86: system.cpu progress event, total committed:538241855, progress insts committed: 2863360, IPC: 00.28605
653333333268: Event_86: system.cpu progress event, total committed:541105179, progress insts committed: 2863324, IPC: 0.286046
656666666601: Event_86: system.cpu progress event, total committed:543968347, progress insts committed: 2863168, IPC: 00.28603
659999999934: Event_86: system.cpu progress event, total committed:546831691, progress insts committed: 2863344, IPC: 0.286048
663333333267: Event_86: system.cpu progress event, total committed:549695035, progress insts committed: 2863344, IPC: 0.286048
666666666600: Event_86: system.cpu progress event, total committed:552558379, progress insts committed: 2863344, IPC: 0.286048
Round 10 sbox outputs: f4 2f 77 97 3b f6 e7 b6 11 35 a2 54 fc c3 7b 50 
669999999933: Event_86: system.cpu progress event, total committed:555416479, progress insts committed: 2858100, IPC: 0.285524
673333333266: Event_86: system.cpu progress event, total committed:558313205, progress insts committed: 2896726, IPC: 0.289383
676666666599: Event_86: system.cpu progress event, total committed:561209471, progress insts committed: 2896266, IPC: 0.289337
679999999932: Event_86: system.cpu progress event, total committed:564104495, progress insts committed: 2895024, IPC: 0.289213
683333333265: Event_86: system.cpu progress event, total committed:567001591, progress insts committed: 2897096, IPC: 00.28942
686666666598: Event_86: system.cpu progress event, total committed:569897158, progress insts committed: 2895567, IPC: 0.289267
689999999931: Event_86: system.cpu progress event, total committed:572790447, progress insts committed: 2893289, IPC: 00.28904
693333333264: Event_86: system.cpu progress event, total committed:575685999, progress insts committed: 2895552, IPC: 0.289266
696666666597: Event_86: system.cpu progress event, total committed:578581023, progress insts committed: 2895024, IPC: 0.289213
699999999930: Event_86: system.cpu progress event, total committed:581478159, progress insts committed: 2897136, IPC: 0.289424
703333333263: Event_86: system.cpu progress event, total committed:584373384, progress insts committed: 2895225, IPC: 0.289233
706666666596: Event_86: system.cpu progress event, total committed:587270572, progress insts committed: 2897188, IPC: 0.289429
709999999929: Event_86: system.cpu progress event, total committed:590165960, progress insts committed: 2895388, IPC: 0.289249
713333333262: Event_86: system.cpu progress event, total committed:593059944, progress insts committed: 2893984, IPC: 0.289109
716666666595: Event_86: system.cpu progress event, total committed:595954273, progress insts committed: 2894329, IPC: 0.289143
719999999928: Event_86: system.cpu progress event, total committed:598851952, progress insts committed: 2897679, IPC: 0.289478
723333333261: Event_86: system.cpu progress event, total committed:601750686, progress insts committed: 2898734, IPC: 0.289584
726666666594: Event_86: system.cpu progress event, total committed:604645194, progress insts committed: 2894508, IPC: 0.289161
729999999927: Event_86: system.cpu progress event, total committed:607542527, progress insts committed: 2897333, IPC: 0.289444
733333333260: Event_86: system.cpu progress event, total committed:610438255, progress insts committed: 2895728, IPC: 0.289283
736666666593: Event_86: system.cpu progress event, total committed:613335784, progress insts committed: 2897529, IPC: 0.289463
739999999926: Event_86: system.cpu progress event, total committed:616233459, progress insts committed: 2897675, IPC: 0.289478
743333333259: Event_86: system.cpu progress event, total committed:619131138, progress insts committed: 2897679, IPC: 0.289478
746666666592: Event_86: system.cpu progress event, total committed:622028073, progress insts committed: 2896935, IPC: 0.289404
749999999925: Event_86: system.cpu progress event, total committed:624922358, progress insts committed: 2894285, IPC: 0.289139
753333333258: Event_86: system.cpu progress event, total committed:627816669, progress insts committed: 2894311, IPC: 0.289142
756666666591: Event_86: system.cpu progress event, total committed:630712611, progress insts committed: 2895942, IPC: 0.289305
759999999924: Event_86: system.cpu progress event, total committed:633608303, progress insts committed: 2895692, IPC: 00.28928
763333333257: Event_86: system.cpu progress event, total committed:636505967, progress insts committed: 2897664, IPC: 0.289477
766666666590: Event_86: system.cpu progress event, total committed:639402157, progress insts committed: 2896190, IPC: 0.289329
769999999923: Event_86: system.cpu progress event, total committed:642300083, progress insts committed: 2897926, IPC: 0.289503
773333333256: Event_86: system.cpu progress event, total committed:645196847, progress insts committed: 2896764, IPC: 0.289387
776666666589: Event_86: system.cpu progress event, total committed:648092726, progress insts committed: 2895879, IPC: 0.289298
779999999922: Event_86: system.cpu progress event, total committed:650990401, progress insts committed: 2897675, IPC: 0.289478
783333333255: Event_86: system.cpu progress event, total committed:653886741, progress insts committed: 2896340, IPC: 0.289344
786666666588: Event_86: system.cpu progress event, total committed:656785215, progress insts committed: 2898474, IPC: 0.289558
789999999921: Event_86: system.cpu progress event, total committed:659681871, progress insts committed: 2896656, IPC: 0.289376
793333333254: Event_86: system.cpu progress event, total committed:662579135, progress insts committed: 2897264, IPC: 0.289437
796666666587: Event_86: system.cpu progress event, total committed:665476623, progress insts committed: 2897488, IPC: 0.289459
799999999920: Event_86: system.cpu progress event, total committed:668375167, progress insts committed: 2898544, IPC: 0.289565
803333333253: Event_86: system.cpu progress event, total committed:671272303, progress insts committed: 2897136, IPC: 0.289424
806666666586: Event_86: system.cpu progress event, total committed:674171911, progress insts committed: 2899608, IPC: 0.289671
809999999919: Event_86: system.cpu progress event, total committed:677068335, progress insts committed: 2896424, IPC: 0.289353
813333333252: Event_86: system.cpu progress event, total committed:679963711, progress insts committed: 2895376, IPC: 0.289248
816666666585: Event_86: system.cpu progress event, total committed:682861199, progress insts committed: 2897488, IPC: 0.289459
819999999918: Event_86: system.cpu progress event, total committed:685757631, progress insts committed: 2896432, IPC: 0.289354
823333333251: Event_86: system.cpu progress event, total committed:688655425, progress insts committed: 2897794, IPC: 00.28949
826666666584: Event_86: system.cpu progress event, total committed:691554367, progress insts committed: 2898942, IPC: 0.289604
829999999917: Event_86: system.cpu progress event, total committed:694450447, progress insts committed: 2896080, IPC: 0.289318
833333333250: Event_86: system.cpu progress event, total committed:697349123, progress insts committed: 2898676, IPC: 0.289578
836666666583: Event_86: system.cpu progress event, total committed:700247711, progress insts committed: 2898588, IPC: 0.289569
839999999916: Event_86: system.cpu progress event, total committed:703144272, progress insts committed: 2896561, IPC: 0.289366
843333333249: Event_86: system.cpu progress event, total committed:706041203, progress insts committed: 2896931, IPC: 0.289403
846666666582: Event_86: system.cpu progress event, total committed:708939408, progress insts committed: 2898205, IPC: 0.289531
849999999915: Event_86: system.cpu progress event, total committed:711835898, progress insts committed: 2896490, IPC: 0.289359
853333333248: Event_86: system.cpu progress event, total committed:714733003, progress insts committed: 2897105, IPC: 0.289421
856666666581: Event_86: system.cpu progress event, total committed:717631935, progress insts committed: 2898932, IPC: 0.289603
859999999914: Event_86: system.cpu progress event, total committed:720529266, progress insts committed: 2897331, IPC: 0.289443
863333333247: Event_86: system.cpu progress event, total committed:723426274, progress insts committed: 2897008, IPC: 0.289411
866666666580: Event_86: system.cpu progress event, total committed:726321314, progress insts committed: 2895040, IPC: 0.289214
869999999913: Event_86: system.cpu progress event, total committed:729218459, progress insts committed: 2897145, IPC: 0.289425
873333333246: Event_86: system.cpu progress event, total committed:732116732, progress insts committed: 2898273, IPC: 0.289537
876666666579: Event_86: system.cpu progress event, total committed:735014083, progress insts committed: 2897351, IPC: 0.289445
879999999912: Event_86: system.cpu progress event, total committed:737914442, progress insts committed: 2900359, IPC: 0.289746
Attacker access time(2f): 637758059,  for ciphertext: 2a 62 d1 0a 21 1b 10 91 f6 69 9b 5b 77 ae bd b2  and round 10 key: de 94 73 5a 1a 2e 6b 06 e7 aa ec ed 8b 81 5a e6 
Exiting @ tick 881657156970 because exiting with last active thread context
