gem5 Simulator System.  http://gem5.org
gem5 is copyrighted software; use the --copyright option for details.

gem5 compiled Dec 20 2024 16:10:06
gem5 started Dec 31 2024 14:43:51
gem5 executing on computenode3, pid 3997670
command line: /home/nimish/mirage/perf_analysis/gem5/build/X86/gem5.opt --outdir ./stats/stat_2183 /home/nimish/mirage/perf_analysis/gem5/configs/example/spec06_config_multiprogram.py --benchmark=specrand_i --num-cpus=1 --mem-size=8GB --mem-type=DDR4_2400_8x8 --cpu-type TimingSimpleCPU --caches --l2cache --l1d_size=512B --l1i_size=32kB --l2_size=16MB --l1d_assoc=8 --l1i_assoc=8 --l2_assoc=16 --mirage_mode=scatter-cache --l2_numSkews=2 --l2_TDR=1.75 --l2_EncrLat=3 --prog-interval=300Hz

Workload-0: 
['/home/nimish/mirage/AES_TBOX/C/build/AES-TBOX']
Global frequency set at 1000000000000 ticks per second
CWD: /home/nimish/mirage
      0: system.l2.tags.indexing_policy: Size of Tag-Store for Skewed-Assoc-Randomized - Sets:16384, with Assoc:16 
**** REAL SIMULATION ****
3333333333: Event_86: system.cpu progress event, total committed:3146698, progress insts committed: 3146698, IPC: 0.314355
6666666666: Event_86: system.cpu progress event, total committed:5859367, progress insts committed: 2712669, IPC: 0.270996
9999999999: Event_86: system.cpu progress event, total committed:8571994, progress insts committed: 2712627, IPC: 0.270991
13333333332: Event_86: system.cpu progress event, total committed:11284627, progress insts committed: 2712633, IPC: 0.270992
16666666665: Event_86: system.cpu progress event, total committed:13997274, progress insts committed: 2712647, IPC: 0.270993
19999999998: Event_86: system.cpu progress event, total committed:16709962, progress insts committed: 2712688, IPC: 0.270998
23333333331: Event_86: system.cpu progress event, total committed:19422610, progress insts committed: 2712648, IPC: 0.270994
26666666664: Event_86: system.cpu progress event, total committed:22135162, progress insts committed: 2712552, IPC: 0.270984
29999999997: Event_86: system.cpu progress event, total committed:24847655, progress insts committed: 2712493, IPC: 0.270978
33333333330: Event_86: system.cpu progress event, total committed:27560286, progress insts committed: 2712631, IPC: 0.270992
36666666663: Event_86: system.cpu progress event, total committed:30272913, progress insts committed: 2712627, IPC: 0.270991
39999999996: Event_86: system.cpu progress event, total committed:32985562, progress insts committed: 2712649, IPC: 0.270994
43333333329: Event_86: system.cpu progress event, total committed:35698250, progress insts committed: 2712688, IPC: 0.270998
46666666662: Event_86: system.cpu progress event, total committed:38410908, progress insts committed: 2712658, IPC: 0.270995
49999999995: Event_86: system.cpu progress event, total committed:41123535, progress insts committed: 2712627, IPC: 0.270991
53333333328: Event_86: system.cpu progress event, total committed:43835962, progress insts committed: 2712427, IPC: 0.270971
56666666661: Event_86: system.cpu progress event, total committed:46548576, progress insts committed: 2712614, IPC: 00.27099
59999999994: Event_86: system.cpu progress event, total committed:49261204, progress insts committed: 2712628, IPC: 0.270992
63333333327: Event_86: system.cpu progress event, total committed:51973850, progress insts committed: 2712646, IPC: 0.270993
66666666660: Event_86: system.cpu progress event, total committed:54686538, progress insts committed: 2712688, IPC: 0.270998
69999999993: Event_86: system.cpu progress event, total committed:57399193, progress insts committed: 2712655, IPC: 0.270994
73333333326: Event_86: system.cpu progress event, total committed:60111821, progress insts committed: 2712628, IPC: 0.270992
76666666659: Event_86: system.cpu progress event, total committed:62824448, progress insts committed: 2712627, IPC: 0.270991
79999999992: Event_86: system.cpu progress event, total committed:65536867, progress insts committed: 2712419, IPC: 0.270971
83333333325: Event_86: system.cpu progress event, total committed:68249491, progress insts committed: 2712624, IPC: 0.270991
86666666658: Event_86: system.cpu progress event, total committed:70962138, progress insts committed: 2712647, IPC: 0.270993
89999999991: Event_86: system.cpu progress event, total committed:73674826, progress insts committed: 2712688, IPC: 0.270998
93333333324: Event_86: system.cpu progress event, total committed:76387487, progress insts committed: 2712661, IPC: 0.270995
96666666657: Event_86: system.cpu progress event, total committed:79100112, progress insts committed: 2712625, IPC: 0.270991
99999999990: Event_86: system.cpu progress event, total committed:81812739, progress insts committed: 2712627, IPC: 0.270991
103333333323: Event_86: system.cpu progress event, total committed:84525402, progress insts committed: 2712663, IPC: 0.270995
106666666656: Event_86: system.cpu progress event, total committed:87237782, progress insts committed: 2712380, IPC: 0.270967
109999999989: Event_86: system.cpu progress event, total committed:89950426, progress insts committed: 2712644, IPC: 0.270993
113333333322: Event_86: system.cpu progress event, total committed:92663114, progress insts committed: 2712688, IPC: 0.270998
116666666655: Event_86: system.cpu progress event, total committed:95375775, progress insts committed: 2712661, IPC: 0.270995
119999999988: Event_86: system.cpu progress event, total committed:98088400, progress insts committed: 2712625, IPC: 0.270991
123333333321: Event_86: system.cpu progress event, total committed:100801027, progress insts committed: 2712627, IPC: 0.270991
126666666654: Event_86: system.cpu progress event, total committed:103513690, progress insts committed: 2712663, IPC: 0.270995
129999999987: Event_86: system.cpu progress event, total committed:106226378, progress insts committed: 2712688, IPC: 0.270998
133333333320: Event_86: system.cpu progress event, total committed:108938714, progress insts committed: 2712336, IPC: 0.270962
136666666653: Event_86: system.cpu progress event, total committed:111651402, progress insts committed: 2712688, IPC: 0.270998
139999999986: Event_86: system.cpu progress event, total committed:114364065, progress insts committed: 2712663, IPC: 0.270995
143333333319: Event_86: system.cpu progress event, total committed:117076691, progress insts committed: 2712626, IPC: 0.270991
146666666652: Event_86: system.cpu progress event, total committed:119789316, progress insts committed: 2712625, IPC: 0.270991
149999999985: Event_86: system.cpu progress event, total committed:122501978, progress insts committed: 2712662, IPC: 0.270995
153333333318: Event_86: system.cpu progress event, total committed:125214666, progress insts committed: 2712688, IPC: 0.270998
156666666651: Event_86: system.cpu progress event, total committed:127927310, progress insts committed: 2712644, IPC: 0.270993
159999999984: Event_86: system.cpu progress event, total committed:130639690, progress insts committed: 2712380, IPC: 0.270967
163333333317: Event_86: system.cpu progress event, total committed:133352353, progress insts committed: 2712663, IPC: 0.270995
166666666650: Event_86: system.cpu progress event, total committed:136064978, progress insts committed: 2712625, IPC: 0.270991
169999999983: Event_86: system.cpu progress event, total committed:138777605, progress insts committed: 2712627, IPC: 0.270991
173333333316: Event_86: system.cpu progress event, total committed:141490266, progress insts committed: 2712661, IPC: 0.270995
176666666649: Event_86: system.cpu progress event, total committed:144202954, progress insts committed: 2712688, IPC: 0.270998
179999999982: Event_86: system.cpu progress event, total committed:146915599, progress insts committed: 2712645, IPC: 0.270993
183333333315: Event_86: system.cpu progress event, total committed:149628154, progress insts committed: 2712555, IPC: 0.270984
186666666648: Event_86: system.cpu progress event, total committed:152340644, progress insts committed: 2712490, IPC: 0.270978
189999999981: Event_86: system.cpu progress event, total committed:155053269, progress insts committed: 2712625, IPC: 0.270991
193333333314: Event_86: system.cpu progress event, total committed:157765899, progress insts committed: 2712630, IPC: 0.270992
196666666647: Event_86: system.cpu progress event, total committed:160478554, progress insts committed: 2712655, IPC: 0.270994
199999999980: Event_86: system.cpu progress event, total committed:163191242, progress insts committed: 2712688, IPC: 0.270998
203333333313: Event_86: system.cpu progress event, total committed:165903889, progress insts committed: 2712647, IPC: 0.270993
206666666646: Event_86: system.cpu progress event, total committed:168616519, progress insts committed: 2712630, IPC: 0.270992
209999999979: Event_86: system.cpu progress event, total committed:171328954, progress insts committed: 2712435, IPC: 0.270972
213333333312: Event_86: system.cpu progress event, total committed:174041557, progress insts committed: 2712603, IPC: 0.270989
216666666645: Event_86: system.cpu progress event, total committed:176754187, progress insts committed: 2712630, IPC: 0.270992
219999999978: Event_86: system.cpu progress event, total committed:179466842, progress insts committed: 2712655, IPC: 0.270994
223333333311: Event_86: system.cpu progress event, total committed:182179530, progress insts committed: 2712688, IPC: 0.270998
226666666644: Event_86: system.cpu progress event, total committed:184892177, progress insts committed: 2712647, IPC: 0.270993
229999999977: Event_86: system.cpu progress event, total committed:187604801, progress insts committed: 2712624, IPC: 0.270991
233333333310: Event_86: system.cpu progress event, total committed:190317432, progress insts committed: 2712631, IPC: 0.270992
236666666643: Event_86: system.cpu progress event, total committed:193029846, progress insts committed: 2712414, IPC: 00.27097
239999999976: Event_86: system.cpu progress event, total committed:195742475, progress insts committed: 2712629, IPC: 0.270992
243333333309: Event_86: system.cpu progress event, total committed:198455130, progress insts committed: 2712655, IPC: 0.270994
246666666642: Event_86: system.cpu progress event, total committed:201167818, progress insts committed: 2712688, IPC: 0.270998
249999999975: Event_86: system.cpu progress event, total committed:203880466, progress insts committed: 2712648, IPC: 0.270994
253333333308: Event_86: system.cpu progress event, total committed:206593098, progress insts committed: 2712632, IPC: 0.270992
256666666641: Event_86: system.cpu progress event, total committed:209305724, progress insts committed: 2712626, IPC: 0.270991
259999999974: Event_86: system.cpu progress event, total committed:212018394, progress insts committed: 2712670, IPC: 0.270996
263333333307: Event_86: system.cpu progress event, total committed:214730764, progress insts committed: 2712370, IPC: 0.270966
266666666640: Event_86: system.cpu progress event, total committed:217443418, progress insts committed: 2712654, IPC: 0.270994
269999999973: Event_86: system.cpu progress event, total committed:220156106, progress insts committed: 2712688, IPC: 0.270998
273333333306: Event_86: system.cpu progress event, total committed:222868755, progress insts committed: 2712649, IPC: 0.270994
276666666639: Event_86: system.cpu progress event, total committed:225581383, progress insts committed: 2712628, IPC: 0.270992
279999999972: Event_86: system.cpu progress event, total committed:228294012, progress insts committed: 2712629, IPC: 0.270992
283333333305: Event_86: system.cpu progress event, total committed:231006682, progress insts committed: 2712670, IPC: 0.270996
286666666638: Event_86: system.cpu progress event, total committed:233719370, progress insts committed: 2712688, IPC: 0.270998
289999999971: Event_86: system.cpu progress event, total committed:236431706, progress insts committed: 2712336, IPC: 0.270962
293333333304: Event_86: system.cpu progress event, total committed:239144394, progress insts committed: 2712688, IPC: 0.270998
296666666637: Event_86: system.cpu progress event, total committed:241857046, progress insts committed: 2712652, IPC: 0.270994
299999999970: Event_86: system.cpu progress event, total committed:244569677, progress insts committed: 2712631, IPC: 0.270992
303333333303: Event_86: system.cpu progress event, total committed:247282302, progress insts committed: 2712625, IPC: 0.270991
306666666636: Event_86: system.cpu progress event, total committed:249994970, progress insts committed: 2712668, IPC: 0.270996
309999999969: Event_86: system.cpu progress event, total committed:252707658, progress insts committed: 2712688, IPC: 0.270998
313333333302: Event_86: system.cpu progress event, total committed:255420292, progress insts committed: 2712634, IPC: 0.270992
316666666635: Event_86: system.cpu progress event, total committed:258132682, progress insts committed: 2712390, IPC: 0.270968
319999999968: Event_86: system.cpu progress event, total committed:260845337, progress insts committed: 2712655, IPC: 0.270994
323333333301: Event_86: system.cpu progress event, total committed:263557965, progress insts committed: 2712628, IPC: 0.270992
326666666634: Event_86: system.cpu progress event, total committed:266270590, progress insts committed: 2712625, IPC: 0.270991
329999999967: Event_86: system.cpu progress event, total committed:268983258, progress insts committed: 2712668, IPC: 0.270996
333333333300: Event_86: system.cpu progress event, total committed:271695946, progress insts committed: 2712688, IPC: 0.270998
336666666633: Event_86: system.cpu progress event, total committed:274408585, progress insts committed: 2712639, IPC: 0.270993
339999999966: Event_86: system.cpu progress event, total committed:277121146, progress insts committed: 2712561, IPC: 0.270985
343333333299: Event_86: system.cpu progress event, total committed:279833625, progress insts committed: 2712479, IPC: 0.270977
346666666632: Event_86: system.cpu progress event, total committed:282546255, progress insts committed: 2712630, IPC: 0.270992
349999999965: Event_86: system.cpu progress event, total committed:285258880, progress insts committed: 2712625, IPC: 0.270991
353333333298: Event_86: system.cpu progress event, total committed:287971546, progress insts committed: 2712666, IPC: 0.270995
356666666631: Event_86: system.cpu progress event, total committed:290684234, progress insts committed: 2712688, IPC: 0.270998
359999999964: Event_86: system.cpu progress event, total committed:293396873, progress insts committed: 2712639, IPC: 0.270993
363333333297: Event_86: system.cpu progress event, total committed:296109500, progress insts committed: 2712627, IPC: 0.270991
366666666630: Event_86: system.cpu progress event, total committed:298821946, progress insts committed: 2712446, IPC: 0.270973
369999999963: Event_86: system.cpu progress event, total committed:301534543, progress insts committed: 2712597, IPC: 0.270988
373333333296: Event_86: system.cpu progress event, total committed:304247169, progress insts committed: 2712626, IPC: 0.270991
376666666629: Event_86: system.cpu progress event, total committed:306959834, progress insts committed: 2712665, IPC: 0.270995
379999999962: Event_86: system.cpu progress event, total committed:309672522, progress insts committed: 2712688, IPC: 0.270998
383333333295: Event_86: system.cpu progress event, total committed:312385164, progress insts committed: 2712642, IPC: 0.270993
386666666628: Event_86: system.cpu progress event, total committed:315097788, progress insts committed: 2712624, IPC: 0.270991
389999999961: Event_86: system.cpu progress event, total committed:317810413, progress insts committed: 2712625, IPC: 0.270991
393333333294: Event_86: system.cpu progress event, total committed:320522832, progress insts committed: 2712419, IPC: 0.270971
396666666627: Event_86: system.cpu progress event, total committed:323235459, progress insts committed: 2712627, IPC: 0.270991
399999999960: Event_86: system.cpu progress event, total committed:325948122, progress insts committed: 2712663, IPC: 0.270995
403333333293: Event_86: system.cpu progress event, total committed:328660810, progress insts committed: 2712688, IPC: 0.270998
406666666626: Event_86: system.cpu progress event, total committed:331373452, progress insts committed: 2712642, IPC: 0.270993
409999999959: Event_86: system.cpu progress event, total committed:334086079, progress insts committed: 2712627, IPC: 0.270991
413333333292: Event_86: system.cpu progress event, total committed:336798710, progress insts committed: 2712631, IPC: 0.270992
416666666625: Event_86: system.cpu progress event, total committed:339511386, progress insts committed: 2712676, IPC: 0.270996
419999999958: Event_86: system.cpu progress event, total committed:342223748, progress insts committed: 2712362, IPC: 0.270965
423333333291: Event_86: system.cpu progress event, total committed:344936410, progress insts committed: 2712662, IPC: 0.270995
426666666624: Event_86: system.cpu progress event, total committed:347649098, progress insts committed: 2712688, IPC: 0.270998
429999999957: Event_86: system.cpu progress event, total committed:350361742, progress insts committed: 2712644, IPC: 0.270993
433333333290: Event_86: system.cpu progress event, total committed:353074367, progress insts committed: 2712625, IPC: 0.270991
436666666623: Event_86: system.cpu progress event, total committed:355786993, progress insts committed: 2712626, IPC: 0.270991
439999999956: Event_86: system.cpu progress event, total committed:358499674, progress insts committed: 2712681, IPC: 0.270997
443333333289: Event_86: system.cpu progress event, total committed:361212362, progress insts committed: 2712688, IPC: 0.270998
446666666622: Event_86: system.cpu progress event, total committed:363924698, progress insts committed: 2712336, IPC: 0.270962
449999999955: Event_86: system.cpu progress event, total committed:366637386, progress insts committed: 2712688, IPC: 0.270998
453333333288: Event_86: system.cpu progress event, total committed:369350030, progress insts committed: 2712644, IPC: 0.270993
456666666621: Event_86: system.cpu progress event, total committed:372169308, progress insts committed: 2819278, IPC: 0.281646
459999999954: Event_86: system.cpu progress event, total committed:375032661, progress insts committed: 2863353, IPC: 0.286049
463333333287: Event_86: system.cpu progress event, total committed:377896021, progress insts committed: 2863360, IPC: 00.28605
466666666620: Event_86: system.cpu progress event, total committed:380759375, progress insts committed: 2863354, IPC: 0.286049
469999999953: Event_86: system.cpu progress event, total committed:383622734, progress insts committed: 2863359, IPC: 00.28605
473333333286: Event_86: system.cpu progress event, total committed:386485813, progress insts committed: 2863079, IPC: 0.286022
476666666619: Event_86: system.cpu progress event, total committed:389349157, progress insts committed: 2863344, IPC: 0.286048
479999999952: Event_86: system.cpu progress event, total committed:392212501, progress insts committed: 2863344, IPC: 0.286048
483333333285: Event_86: system.cpu progress event, total committed:395075845, progress insts committed: 2863344, IPC: 0.286048
486666666618: Event_86: system.cpu progress event, total committed:397939189, progress insts committed: 2863344, IPC: 0.286048
489999999951: Event_86: system.cpu progress event, total committed:400802550, progress insts committed: 2863361, IPC: 00.28605
493333333284: Event_86: system.cpu progress event, total committed:403665903, progress insts committed: 2863353, IPC: 0.286049
496666666617: Event_86: system.cpu progress event, total committed:406529221, progress insts committed: 2863318, IPC: 0.286045
499999999950: Event_86: system.cpu progress event, total committed:409392389, progress insts committed: 2863168, IPC: 00.28603
503333333283: Event_86: system.cpu progress event, total committed:412255733, progress insts committed: 2863344, IPC: 0.286048
506666666616: Event_86: system.cpu progress event, total committed:415119077, progress insts committed: 2863344, IPC: 0.286048
509999999949: Event_86: system.cpu progress event, total committed:417982421, progress insts committed: 2863344, IPC: 0.286048
513333333282: Event_86: system.cpu progress event, total committed:420845765, progress insts committed: 2863344, IPC: 0.286048
516666666615: Event_86: system.cpu progress event, total committed:423709109, progress insts committed: 2863344, IPC: 0.286048
519999999948: Event_86: system.cpu progress event, total committed:426572453, progress insts committed: 2863344, IPC: 0.286048
523333333281: Event_86: system.cpu progress event, total committed:429435621, progress insts committed: 2863168, IPC: 00.28603
526666666614: Event_86: system.cpu progress event, total committed:432298938, progress insts committed: 2863317, IPC: 0.286045
529999999947: Event_86: system.cpu progress event, total committed:435162291, progress insts committed: 2863353, IPC: 0.286049
533333333280: Event_86: system.cpu progress event, total committed:438025650, progress insts committed: 2863359, IPC: 00.28605
536666666613: Event_86: system.cpu progress event, total committed:440888997, progress insts committed: 2863347, IPC: 0.286048
539999999946: Event_86: system.cpu progress event, total committed:443752341, progress insts committed: 2863344, IPC: 0.286048
543333333279: Event_86: system.cpu progress event, total committed:446615685, progress insts committed: 2863344, IPC: 0.286048
546666666612: Event_86: system.cpu progress event, total committed:449479029, progress insts committed: 2863344, IPC: 0.286048
549999999945: Event_86: system.cpu progress event, total committed:452342107, progress insts committed: 2863078, IPC: 0.286021
553333333278: Event_86: system.cpu progress event, total committed:455205461, progress insts committed: 2863354, IPC: 0.286049
556666666611: Event_86: system.cpu progress event, total committed:458068820, progress insts committed: 2863359, IPC: 00.28605
559999999944: Event_86: system.cpu progress event, total committed:460932180, progress insts committed: 2863360, IPC: 00.28605
563333333277: Event_86: system.cpu progress event, total committed:463795533, progress insts committed: 2863353, IPC: 0.286049
566666666610: Event_86: system.cpu progress event, total committed:466658892, progress insts committed: 2863359, IPC: 00.28605
569999999943: Event_86: system.cpu progress event, total committed:469522250, progress insts committed: 2863358, IPC: 0.286049
573333333276: Event_86: system.cpu progress event, total committed:472385605, progress insts committed: 2863355, IPC: 0.286049
576666666609: Event_86: system.cpu progress event, total committed:475248636, progress insts committed: 2863031, IPC: 0.286017
579999999942: Event_86: system.cpu progress event, total committed:478111989, progress insts committed: 2863353, IPC: 0.286049
583333333275: Event_86: system.cpu progress event, total committed:480975349, progress insts committed: 2863360, IPC: 00.28605
586666666608: Event_86: system.cpu progress event, total committed:483838703, progress insts committed: 2863354, IPC: 0.286049
589999999941: Event_86: system.cpu progress event, total committed:486702062, progress insts committed: 2863359, IPC: 00.28605
593333333274: Event_86: system.cpu progress event, total committed:489565422, progress insts committed: 2863360, IPC: 00.28605
596666666607: Event_86: system.cpu progress event, total committed:492428775, progress insts committed: 2863353, IPC: 0.286049
599999999940: Event_86: system.cpu progress event, total committed:495292134, progress insts committed: 2863359, IPC: 00.28605
603333333273: Event_86: system.cpu progress event, total committed:498155173, progress insts committed: 2863039, IPC: 0.286018
606666666606: Event_86: system.cpu progress event, total committed:501018517, progress insts committed: 2863344, IPC: 0.286048
609999999939: Event_86: system.cpu progress event, total committed:503881878, progress insts committed: 2863361, IPC: 00.28605
613333333272: Event_86: system.cpu progress event, total committed:506745231, progress insts committed: 2863353, IPC: 0.286049
616666666605: Event_86: system.cpu progress event, total committed:509608591, progress insts committed: 2863360, IPC: 00.28605
619999999938: Event_86: system.cpu progress event, total committed:512471945, progress insts committed: 2863354, IPC: 0.286049
623333333271: Event_86: system.cpu progress event, total committed:515335304, progress insts committed: 2863359, IPC: 00.28605
626666666604: Event_86: system.cpu progress event, total committed:518198664, progress insts committed: 2863360, IPC: 00.28605
629999999937: Event_86: system.cpu progress event, total committed:521061749, progress insts committed: 2863085, IPC: 0.286022
633333333270: Event_86: system.cpu progress event, total committed:523925093, progress insts committed: 2863344, IPC: 0.286048
636666666603: Event_86: system.cpu progress event, total committed:526788437, progress insts committed: 2863344, IPC: 0.286048
639999999936: Event_86: system.cpu progress event, total committed:529651781, progress insts committed: 2863344, IPC: 0.286048
643333333269: Event_86: system.cpu progress event, total committed:532515125, progress insts committed: 2863344, IPC: 0.286048
646666666602: Event_86: system.cpu progress event, total committed:535378473, progress insts committed: 2863348, IPC: 0.286048
649999999935: Event_86: system.cpu progress event, total committed:538241833, progress insts committed: 2863360, IPC: 00.28605
653333333268: Event_86: system.cpu progress event, total committed:541105157, progress insts committed: 2863324, IPC: 0.286046
656666666601: Event_86: system.cpu progress event, total committed:543968325, progress insts committed: 2863168, IPC: 00.28603
659999999934: Event_86: system.cpu progress event, total committed:546831669, progress insts committed: 2863344, IPC: 0.286048
663333333267: Event_86: system.cpu progress event, total committed:549695013, progress insts committed: 2863344, IPC: 0.286048
666666666600: Event_86: system.cpu progress event, total committed:552558357, progress insts committed: 2863344, IPC: 0.286048
Round 10 sbox outputs: a2 f3 50 33 2a 28 e5 15 55 6e 7d 76 6e 26 d9 fa 
669999999933: Event_86: system.cpu progress event, total committed:555417113, progress insts committed: 2858756, IPC: 00.28559
673333333266: Event_86: system.cpu progress event, total committed:558313711, progress insts committed: 2896598, IPC: 00.28937
676666666599: Event_86: system.cpu progress event, total committed:561210681, progress insts committed: 2896970, IPC: 0.289407
679999999932: Event_86: system.cpu progress event, total committed:564105177, progress insts committed: 2894496, IPC: 00.28916
683333333265: Event_86: system.cpu progress event, total committed:567001041, progress insts committed: 2895864, IPC: 0.289297
686666666598: Event_86: system.cpu progress event, total committed:569896608, progress insts committed: 2895567, IPC: 0.289267
689999999931: Event_86: system.cpu progress event, total committed:572789358, progress insts committed: 2892750, IPC: 0.288986
693333333264: Event_86: system.cpu progress event, total committed:575684921, progress insts committed: 2895563, IPC: 0.289267
696666666597: Event_86: system.cpu progress event, total committed:578579593, progress insts committed: 2894672, IPC: 0.289178
699999999930: Event_86: system.cpu progress event, total committed:581477785, progress insts committed: 2898192, IPC: 0.289529
703333333263: Event_86: system.cpu progress event, total committed:584373362, progress insts committed: 2895577, IPC: 0.289268
706666666596: Event_86: system.cpu progress event, total committed:587269843, progress insts committed: 2896481, IPC: 0.289358
709999999929: Event_86: system.cpu progress event, total committed:590165762, progress insts committed: 2895919, IPC: 0.289302
713333333262: Event_86: system.cpu progress event, total committed:593062738, progress insts committed: 2896976, IPC: 0.289408
716666666595: Event_86: system.cpu progress event, total committed:595959883, progress insts committed: 2897145, IPC: 0.289425
719999999928: Event_86: system.cpu progress event, total committed:598857914, progress insts committed: 2898031, IPC: 0.289513
723333333261: Event_86: system.cpu progress event, total committed:601754184, progress insts committed: 2896270, IPC: 0.289337
726666666594: Event_86: system.cpu progress event, total committed:604648516, progress insts committed: 2894332, IPC: 0.289144
729999999927: Event_86: system.cpu progress event, total committed:607543556, progress insts committed: 2895040, IPC: 0.289214
733333333260: Event_86: system.cpu progress event, total committed:610438258, progress insts committed: 2894702, IPC: 0.289181
736666666593: Event_86: system.cpu progress event, total committed:613335234, progress insts committed: 2896976, IPC: 0.289408
739999999926: Event_86: system.cpu progress event, total committed:616232487, progress insts committed: 2897253, IPC: 0.289436
743333333259: Event_86: system.cpu progress event, total committed:619130236, progress insts committed: 2897749, IPC: 0.289485
746666666592: Event_86: system.cpu progress event, total committed:622027740, progress insts committed: 2897504, IPC: 0.289461
749999999925: Event_86: system.cpu progress event, total committed:624922864, progress insts committed: 2895124, IPC: 0.289223
753333333258: Event_86: system.cpu progress event, total committed:627820367, progress insts committed: 2897503, IPC: 0.289461
756666666591: Event_86: system.cpu progress event, total committed:630714313, progress insts committed: 2893946, IPC: 0.289105
759999999924: Event_86: system.cpu progress event, total committed:633607929, progress insts committed: 2893616, IPC: 0.289072
763333333257: Event_86: system.cpu progress event, total committed:636504361, progress insts committed: 2896432, IPC: 0.289354
766666666590: Event_86: system.cpu progress event, total committed:639400552, progress insts committed: 2896191, IPC: 0.289329
769999999923: Event_86: system.cpu progress event, total committed:642297347, progress insts committed: 2896795, IPC: 00.28939
773333333256: Event_86: system.cpu progress event, total committed:645193481, progress insts committed: 2896134, IPC: 0.289324
776666666589: Event_86: system.cpu progress event, total committed:648088902, progress insts committed: 2895421, IPC: 0.289253
779999999922: Event_86: system.cpu progress event, total committed:650987462, progress insts committed: 2898560, IPC: 0.289566
783333333255: Event_86: system.cpu progress event, total committed:653884713, progress insts committed: 2897251, IPC: 0.289435
786666666588: Event_86: system.cpu progress event, total committed:656781633, progress insts committed: 2896920, IPC: 0.289402
789999999921: Event_86: system.cpu progress event, total committed:659677753, progress insts committed: 2896120, IPC: 0.289322
793333333254: Event_86: system.cpu progress event, total committed:662575769, progress insts committed: 2898016, IPC: 0.289512
796666666587: Event_86: system.cpu progress event, total committed:665473785, progress insts committed: 2898016, IPC: 0.289512
799999999920: Event_86: system.cpu progress event, total committed:668369161, progress insts committed: 2895376, IPC: 0.289248
803333333253: Event_86: system.cpu progress event, total committed:671265769, progress insts committed: 2896608, IPC: 0.289371
806666666586: Event_86: system.cpu progress event, total committed:674166538, progress insts committed: 2900769, IPC: 0.289787
809999999919: Event_86: system.cpu progress event, total committed:677061097, progress insts committed: 2894559, IPC: 0.289166
813333333252: Event_86: system.cpu progress event, total committed:679960521, progress insts committed: 2899424, IPC: 0.289652
816666666585: Event_86: system.cpu progress event, total committed:682861353, progress insts committed: 2900832, IPC: 0.289793
819999999918: Event_86: system.cpu progress event, total committed:685757961, progress insts committed: 2896608, IPC: 0.289371
823333333251: Event_86: system.cpu progress event, total committed:688655097, progress insts committed: 2897136, IPC: 0.289424
826666666584: Event_86: system.cpu progress event, total committed:691550514, progress insts committed: 2895417, IPC: 0.289252
829999999917: Event_86: system.cpu progress event, total committed:694447414, progress insts committed: 2896900, IPC: 000.2894
833333333250: Event_86: system.cpu progress event, total committed:697347737, progress insts committed: 2900323, IPC: 0.289742
836666666583: Event_86: system.cpu progress event, total committed:700243289, progress insts committed: 2895552, IPC: 0.289266
839999999916: Event_86: system.cpu progress event, total committed:703138618, progress insts committed: 2895329, IPC: 0.289243
843333333249: Event_86: system.cpu progress event, total committed:706036472, progress insts committed: 2897854, IPC: 0.289496
846666666582: Event_86: system.cpu progress event, total committed:708933444, progress insts committed: 2896972, IPC: 0.289408
849999999915: Event_86: system.cpu progress event, total committed:711831657, progress insts committed: 2898213, IPC: 0.289531
853333333248: Event_86: system.cpu progress event, total committed:714731081, progress insts committed: 2899424, IPC: 0.289652
856666666581: Event_86: system.cpu progress event, total committed:717627337, progress insts committed: 2896256, IPC: 0.289336
859999999914: Event_86: system.cpu progress event, total committed:720525529, progress insts committed: 2898192, IPC: 0.289529
863333333247: Event_86: system.cpu progress event, total committed:723419740, progress insts committed: 2894211, IPC: 0.289132
866666666580: Event_86: system.cpu progress event, total committed:726318476, progress insts committed: 2898736, IPC: 0.289584
869999999913: Event_86: system.cpu progress event, total committed:729215881, progress insts committed: 2897405, IPC: 0.289451
873333333246: Event_86: system.cpu progress event, total committed:732113124, progress insts committed: 2897243, IPC: 0.289435
876666666579: Event_86: system.cpu progress event, total committed:735012386, progress insts committed: 2899262, IPC: 0.289636
879999999912: Event_86: system.cpu progress event, total committed:737910062, progress insts committed: 2897676, IPC: 0.289478
Attacker access time(2f): 637776981,  for ciphertext: 7c bc 0e a0 30 40 b2 35 b2 8c bc f8 e5 72 bf 90  and round 10 key: de 94 73 5a 1a 2e 6b 06 e7 aa ec ed 8b 81 5a e6 
Exiting @ tick 881663175945 because exiting with last active thread context
