gem5 Simulator System.  http://gem5.org
gem5 is copyrighted software; use the --copyright option for details.

gem5 compiled Dec 20 2024 16:10:06
gem5 started Jan  1 2025 07:04:03
gem5 executing on computenode3, pid 4005697
command line: /home/nimish/mirage/perf_analysis/gem5/build/X86/gem5.opt --outdir ./stats/stat_185 /home/nimish/mirage/perf_analysis/gem5/configs/example/spec06_config_multiprogram.py --benchmark=specrand_i --num-cpus=1 --mem-size=8GB --mem-type=DDR4_2400_8x8 --cpu-type TimingSimpleCPU --caches --l2cache --l1d_size=512B --l1i_size=32kB --l2_size=16MB --l1d_assoc=8 --l1i_assoc=8 --l2_assoc=16 --mirage_mode=scatter-cache --l2_numSkews=2 --l2_TDR=1.75 --l2_EncrLat=3 --prog-interval=300Hz

Workload-0: 
['/home/nimish/mirage/AES_TBOX/C/build/AES-TBOX']
Global frequency set at 1000000000000 ticks per second
CWD: /home/nimish/mirage
      0: system.l2.tags.indexing_policy: Size of Tag-Store for Skewed-Assoc-Randomized - Sets:16384, with Assoc:16 
**** REAL SIMULATION ****
3333333333: Event_86: system.cpu progress event, total committed:3146824, progress insts committed: 3146824, IPC: 0.314368
6666666666: Event_86: system.cpu progress event, total committed:5859493, progress insts committed: 2712669, IPC: 0.270996
9999999999: Event_86: system.cpu progress event, total committed:8572120, progress insts committed: 2712627, IPC: 0.270991
13333333332: Event_86: system.cpu progress event, total committed:11284753, progress insts committed: 2712633, IPC: 0.270992
16666666665: Event_86: system.cpu progress event, total committed:13997400, progress insts committed: 2712647, IPC: 0.270993
19999999998: Event_86: system.cpu progress event, total committed:16710088, progress insts committed: 2712688, IPC: 0.270998
23333333331: Event_86: system.cpu progress event, total committed:19422736, progress insts committed: 2712648, IPC: 0.270994
26666666664: Event_86: system.cpu progress event, total committed:22135288, progress insts committed: 2712552, IPC: 0.270984
29999999997: Event_86: system.cpu progress event, total committed:24847781, progress insts committed: 2712493, IPC: 0.270978
33333333330: Event_86: system.cpu progress event, total committed:27560412, progress insts committed: 2712631, IPC: 0.270992
36666666663: Event_86: system.cpu progress event, total committed:30273039, progress insts committed: 2712627, IPC: 0.270991
39999999996: Event_86: system.cpu progress event, total committed:32985688, progress insts committed: 2712649, IPC: 0.270994
43333333329: Event_86: system.cpu progress event, total committed:35698376, progress insts committed: 2712688, IPC: 0.270998
46666666662: Event_86: system.cpu progress event, total committed:38411034, progress insts committed: 2712658, IPC: 0.270995
49999999995: Event_86: system.cpu progress event, total committed:41123661, progress insts committed: 2712627, IPC: 0.270991
53333333328: Event_86: system.cpu progress event, total committed:43836088, progress insts committed: 2712427, IPC: 0.270971
56666666661: Event_86: system.cpu progress event, total committed:46548702, progress insts committed: 2712614, IPC: 00.27099
59999999994: Event_86: system.cpu progress event, total committed:49261330, progress insts committed: 2712628, IPC: 0.270992
63333333327: Event_86: system.cpu progress event, total committed:51973976, progress insts committed: 2712646, IPC: 0.270993
66666666660: Event_86: system.cpu progress event, total committed:54686664, progress insts committed: 2712688, IPC: 0.270998
69999999993: Event_86: system.cpu progress event, total committed:57399319, progress insts committed: 2712655, IPC: 0.270994
73333333326: Event_86: system.cpu progress event, total committed:60111947, progress insts committed: 2712628, IPC: 0.270992
76666666659: Event_86: system.cpu progress event, total committed:62824574, progress insts committed: 2712627, IPC: 0.270991
79999999992: Event_86: system.cpu progress event, total committed:65536993, progress insts committed: 2712419, IPC: 0.270971
83333333325: Event_86: system.cpu progress event, total committed:68249617, progress insts committed: 2712624, IPC: 0.270991
86666666658: Event_86: system.cpu progress event, total committed:70962264, progress insts committed: 2712647, IPC: 0.270993
89999999991: Event_86: system.cpu progress event, total committed:73674952, progress insts committed: 2712688, IPC: 0.270998
93333333324: Event_86: system.cpu progress event, total committed:76387613, progress insts committed: 2712661, IPC: 0.270995
96666666657: Event_86: system.cpu progress event, total committed:79100238, progress insts committed: 2712625, IPC: 0.270991
99999999990: Event_86: system.cpu progress event, total committed:81812865, progress insts committed: 2712627, IPC: 0.270991
103333333323: Event_86: system.cpu progress event, total committed:84525528, progress insts committed: 2712663, IPC: 0.270995
106666666656: Event_86: system.cpu progress event, total committed:87237908, progress insts committed: 2712380, IPC: 0.270967
109999999989: Event_86: system.cpu progress event, total committed:89950552, progress insts committed: 2712644, IPC: 0.270993
113333333322: Event_86: system.cpu progress event, total committed:92663240, progress insts committed: 2712688, IPC: 0.270998
116666666655: Event_86: system.cpu progress event, total committed:95375901, progress insts committed: 2712661, IPC: 0.270995
119999999988: Event_86: system.cpu progress event, total committed:98088526, progress insts committed: 2712625, IPC: 0.270991
123333333321: Event_86: system.cpu progress event, total committed:100801153, progress insts committed: 2712627, IPC: 0.270991
126666666654: Event_86: system.cpu progress event, total committed:103513816, progress insts committed: 2712663, IPC: 0.270995
129999999987: Event_86: system.cpu progress event, total committed:106226504, progress insts committed: 2712688, IPC: 0.270998
133333333320: Event_86: system.cpu progress event, total committed:108938840, progress insts committed: 2712336, IPC: 0.270962
136666666653: Event_86: system.cpu progress event, total committed:111651528, progress insts committed: 2712688, IPC: 0.270998
139999999986: Event_86: system.cpu progress event, total committed:114364191, progress insts committed: 2712663, IPC: 0.270995
143333333319: Event_86: system.cpu progress event, total committed:117076817, progress insts committed: 2712626, IPC: 0.270991
146666666652: Event_86: system.cpu progress event, total committed:119789442, progress insts committed: 2712625, IPC: 0.270991
149999999985: Event_86: system.cpu progress event, total committed:122502104, progress insts committed: 2712662, IPC: 0.270995
153333333318: Event_86: system.cpu progress event, total committed:125214792, progress insts committed: 2712688, IPC: 0.270998
156666666651: Event_86: system.cpu progress event, total committed:127927436, progress insts committed: 2712644, IPC: 0.270993
159999999984: Event_86: system.cpu progress event, total committed:130639816, progress insts committed: 2712380, IPC: 0.270967
163333333317: Event_86: system.cpu progress event, total committed:133352479, progress insts committed: 2712663, IPC: 0.270995
166666666650: Event_86: system.cpu progress event, total committed:136065104, progress insts committed: 2712625, IPC: 0.270991
169999999983: Event_86: system.cpu progress event, total committed:138777731, progress insts committed: 2712627, IPC: 0.270991
173333333316: Event_86: system.cpu progress event, total committed:141490392, progress insts committed: 2712661, IPC: 0.270995
176666666649: Event_86: system.cpu progress event, total committed:144203080, progress insts committed: 2712688, IPC: 0.270998
179999999982: Event_86: system.cpu progress event, total committed:146915725, progress insts committed: 2712645, IPC: 0.270993
183333333315: Event_86: system.cpu progress event, total committed:149628280, progress insts committed: 2712555, IPC: 0.270984
186666666648: Event_86: system.cpu progress event, total committed:152340770, progress insts committed: 2712490, IPC: 0.270978
189999999981: Event_86: system.cpu progress event, total committed:155053395, progress insts committed: 2712625, IPC: 0.270991
193333333314: Event_86: system.cpu progress event, total committed:157766025, progress insts committed: 2712630, IPC: 0.270992
196666666647: Event_86: system.cpu progress event, total committed:160478680, progress insts committed: 2712655, IPC: 0.270994
199999999980: Event_86: system.cpu progress event, total committed:163191368, progress insts committed: 2712688, IPC: 0.270998
203333333313: Event_86: system.cpu progress event, total committed:165904015, progress insts committed: 2712647, IPC: 0.270993
206666666646: Event_86: system.cpu progress event, total committed:168616645, progress insts committed: 2712630, IPC: 0.270992
209999999979: Event_86: system.cpu progress event, total committed:171329080, progress insts committed: 2712435, IPC: 0.270972
213333333312: Event_86: system.cpu progress event, total committed:174041683, progress insts committed: 2712603, IPC: 0.270989
216666666645: Event_86: system.cpu progress event, total committed:176754313, progress insts committed: 2712630, IPC: 0.270992
219999999978: Event_86: system.cpu progress event, total committed:179466968, progress insts committed: 2712655, IPC: 0.270994
223333333311: Event_86: system.cpu progress event, total committed:182179656, progress insts committed: 2712688, IPC: 0.270998
226666666644: Event_86: system.cpu progress event, total committed:184892303, progress insts committed: 2712647, IPC: 0.270993
229999999977: Event_86: system.cpu progress event, total committed:187604927, progress insts committed: 2712624, IPC: 0.270991
233333333310: Event_86: system.cpu progress event, total committed:190317558, progress insts committed: 2712631, IPC: 0.270992
236666666643: Event_86: system.cpu progress event, total committed:193029972, progress insts committed: 2712414, IPC: 00.27097
239999999976: Event_86: system.cpu progress event, total committed:195742601, progress insts committed: 2712629, IPC: 0.270992
243333333309: Event_86: system.cpu progress event, total committed:198455256, progress insts committed: 2712655, IPC: 0.270994
246666666642: Event_86: system.cpu progress event, total committed:201167944, progress insts committed: 2712688, IPC: 0.270998
249999999975: Event_86: system.cpu progress event, total committed:203880592, progress insts committed: 2712648, IPC: 0.270994
253333333308: Event_86: system.cpu progress event, total committed:206593224, progress insts committed: 2712632, IPC: 0.270992
256666666641: Event_86: system.cpu progress event, total committed:209305850, progress insts committed: 2712626, IPC: 0.270991
259999999974: Event_86: system.cpu progress event, total committed:212018520, progress insts committed: 2712670, IPC: 0.270996
263333333307: Event_86: system.cpu progress event, total committed:214730890, progress insts committed: 2712370, IPC: 0.270966
266666666640: Event_86: system.cpu progress event, total committed:217443544, progress insts committed: 2712654, IPC: 0.270994
269999999973: Event_86: system.cpu progress event, total committed:220156232, progress insts committed: 2712688, IPC: 0.270998
273333333306: Event_86: system.cpu progress event, total committed:222868881, progress insts committed: 2712649, IPC: 0.270994
276666666639: Event_86: system.cpu progress event, total committed:225581509, progress insts committed: 2712628, IPC: 0.270992
279999999972: Event_86: system.cpu progress event, total committed:228294138, progress insts committed: 2712629, IPC: 0.270992
283333333305: Event_86: system.cpu progress event, total committed:231006808, progress insts committed: 2712670, IPC: 0.270996
286666666638: Event_86: system.cpu progress event, total committed:233719496, progress insts committed: 2712688, IPC: 0.270998
289999999971: Event_86: system.cpu progress event, total committed:236431832, progress insts committed: 2712336, IPC: 0.270962
293333333304: Event_86: system.cpu progress event, total committed:239144520, progress insts committed: 2712688, IPC: 0.270998
296666666637: Event_86: system.cpu progress event, total committed:241857172, progress insts committed: 2712652, IPC: 0.270994
299999999970: Event_86: system.cpu progress event, total committed:244569803, progress insts committed: 2712631, IPC: 0.270992
303333333303: Event_86: system.cpu progress event, total committed:247282428, progress insts committed: 2712625, IPC: 0.270991
306666666636: Event_86: system.cpu progress event, total committed:249995096, progress insts committed: 2712668, IPC: 0.270996
309999999969: Event_86: system.cpu progress event, total committed:252707784, progress insts committed: 2712688, IPC: 0.270998
313333333302: Event_86: system.cpu progress event, total committed:255420418, progress insts committed: 2712634, IPC: 0.270992
316666666635: Event_86: system.cpu progress event, total committed:258132808, progress insts committed: 2712390, IPC: 0.270968
319999999968: Event_86: system.cpu progress event, total committed:260845463, progress insts committed: 2712655, IPC: 0.270994
323333333301: Event_86: system.cpu progress event, total committed:263558091, progress insts committed: 2712628, IPC: 0.270992
326666666634: Event_86: system.cpu progress event, total committed:266270716, progress insts committed: 2712625, IPC: 0.270991
329999999967: Event_86: system.cpu progress event, total committed:268983384, progress insts committed: 2712668, IPC: 0.270996
333333333300: Event_86: system.cpu progress event, total committed:271696072, progress insts committed: 2712688, IPC: 0.270998
336666666633: Event_86: system.cpu progress event, total committed:274408711, progress insts committed: 2712639, IPC: 0.270993
339999999966: Event_86: system.cpu progress event, total committed:277121272, progress insts committed: 2712561, IPC: 0.270985
343333333299: Event_86: system.cpu progress event, total committed:279833751, progress insts committed: 2712479, IPC: 0.270977
346666666632: Event_86: system.cpu progress event, total committed:282546381, progress insts committed: 2712630, IPC: 0.270992
349999999965: Event_86: system.cpu progress event, total committed:285259006, progress insts committed: 2712625, IPC: 0.270991
353333333298: Event_86: system.cpu progress event, total committed:287971672, progress insts committed: 2712666, IPC: 0.270995
356666666631: Event_86: system.cpu progress event, total committed:290684360, progress insts committed: 2712688, IPC: 0.270998
359999999964: Event_86: system.cpu progress event, total committed:293396999, progress insts committed: 2712639, IPC: 0.270993
363333333297: Event_86: system.cpu progress event, total committed:296109626, progress insts committed: 2712627, IPC: 0.270991
366666666630: Event_86: system.cpu progress event, total committed:298822072, progress insts committed: 2712446, IPC: 0.270973
369999999963: Event_86: system.cpu progress event, total committed:301534669, progress insts committed: 2712597, IPC: 0.270988
373333333296: Event_86: system.cpu progress event, total committed:304247295, progress insts committed: 2712626, IPC: 0.270991
376666666629: Event_86: system.cpu progress event, total committed:306959960, progress insts committed: 2712665, IPC: 0.270995
379999999962: Event_86: system.cpu progress event, total committed:309672648, progress insts committed: 2712688, IPC: 0.270998
383333333295: Event_86: system.cpu progress event, total committed:312385290, progress insts committed: 2712642, IPC: 0.270993
386666666628: Event_86: system.cpu progress event, total committed:315097914, progress insts committed: 2712624, IPC: 0.270991
389999999961: Event_86: system.cpu progress event, total committed:317810539, progress insts committed: 2712625, IPC: 0.270991
393333333294: Event_86: system.cpu progress event, total committed:320522958, progress insts committed: 2712419, IPC: 0.270971
396666666627: Event_86: system.cpu progress event, total committed:323235585, progress insts committed: 2712627, IPC: 0.270991
399999999960: Event_86: system.cpu progress event, total committed:325948248, progress insts committed: 2712663, IPC: 0.270995
403333333293: Event_86: system.cpu progress event, total committed:328660936, progress insts committed: 2712688, IPC: 0.270998
406666666626: Event_86: system.cpu progress event, total committed:331373578, progress insts committed: 2712642, IPC: 0.270993
409999999959: Event_86: system.cpu progress event, total committed:334086205, progress insts committed: 2712627, IPC: 0.270991
413333333292: Event_86: system.cpu progress event, total committed:336798836, progress insts committed: 2712631, IPC: 0.270992
416666666625: Event_86: system.cpu progress event, total committed:339511512, progress insts committed: 2712676, IPC: 0.270996
419999999958: Event_86: system.cpu progress event, total committed:342223874, progress insts committed: 2712362, IPC: 0.270965
423333333291: Event_86: system.cpu progress event, total committed:344936536, progress insts committed: 2712662, IPC: 0.270995
426666666624: Event_86: system.cpu progress event, total committed:347649224, progress insts committed: 2712688, IPC: 0.270998
429999999957: Event_86: system.cpu progress event, total committed:350361868, progress insts committed: 2712644, IPC: 0.270993
433333333290: Event_86: system.cpu progress event, total committed:353074493, progress insts committed: 2712625, IPC: 0.270991
436666666623: Event_86: system.cpu progress event, total committed:355787119, progress insts committed: 2712626, IPC: 0.270991
439999999956: Event_86: system.cpu progress event, total committed:358499800, progress insts committed: 2712681, IPC: 0.270997
443333333289: Event_86: system.cpu progress event, total committed:361212488, progress insts committed: 2712688, IPC: 0.270998
446666666622: Event_86: system.cpu progress event, total committed:363924824, progress insts committed: 2712336, IPC: 0.270962
449999999955: Event_86: system.cpu progress event, total committed:366637512, progress insts committed: 2712688, IPC: 0.270998
453333333288: Event_86: system.cpu progress event, total committed:369350156, progress insts committed: 2712644, IPC: 0.270993
456666666621: Event_86: system.cpu progress event, total committed:372169434, progress insts committed: 2819278, IPC: 0.281646
459999999954: Event_86: system.cpu progress event, total committed:375032787, progress insts committed: 2863353, IPC: 0.286049
463333333287: Event_86: system.cpu progress event, total committed:377896147, progress insts committed: 2863360, IPC: 00.28605
466666666620: Event_86: system.cpu progress event, total committed:380759501, progress insts committed: 2863354, IPC: 0.286049
469999999953: Event_86: system.cpu progress event, total committed:383622860, progress insts committed: 2863359, IPC: 00.28605
473333333286: Event_86: system.cpu progress event, total committed:386485939, progress insts committed: 2863079, IPC: 0.286022
476666666619: Event_86: system.cpu progress event, total committed:389349283, progress insts committed: 2863344, IPC: 0.286048
479999999952: Event_86: system.cpu progress event, total committed:392212627, progress insts committed: 2863344, IPC: 0.286048
483333333285: Event_86: system.cpu progress event, total committed:395075971, progress insts committed: 2863344, IPC: 0.286048
486666666618: Event_86: system.cpu progress event, total committed:397939315, progress insts committed: 2863344, IPC: 0.286048
489999999951: Event_86: system.cpu progress event, total committed:400802676, progress insts committed: 2863361, IPC: 00.28605
493333333284: Event_86: system.cpu progress event, total committed:403666029, progress insts committed: 2863353, IPC: 0.286049
496666666617: Event_86: system.cpu progress event, total committed:406529347, progress insts committed: 2863318, IPC: 0.286045
499999999950: Event_86: system.cpu progress event, total committed:409392515, progress insts committed: 2863168, IPC: 00.28603
503333333283: Event_86: system.cpu progress event, total committed:412255859, progress insts committed: 2863344, IPC: 0.286048
506666666616: Event_86: system.cpu progress event, total committed:415119203, progress insts committed: 2863344, IPC: 0.286048
509999999949: Event_86: system.cpu progress event, total committed:417982547, progress insts committed: 2863344, IPC: 0.286048
513333333282: Event_86: system.cpu progress event, total committed:420845891, progress insts committed: 2863344, IPC: 0.286048
516666666615: Event_86: system.cpu progress event, total committed:423709235, progress insts committed: 2863344, IPC: 0.286048
519999999948: Event_86: system.cpu progress event, total committed:426572579, progress insts committed: 2863344, IPC: 0.286048
523333333281: Event_86: system.cpu progress event, total committed:429435747, progress insts committed: 2863168, IPC: 00.28603
526666666614: Event_86: system.cpu progress event, total committed:432299064, progress insts committed: 2863317, IPC: 0.286045
529999999947: Event_86: system.cpu progress event, total committed:435162417, progress insts committed: 2863353, IPC: 0.286049
533333333280: Event_86: system.cpu progress event, total committed:438025776, progress insts committed: 2863359, IPC: 00.28605
536666666613: Event_86: system.cpu progress event, total committed:440889123, progress insts committed: 2863347, IPC: 0.286048
539999999946: Event_86: system.cpu progress event, total committed:443752467, progress insts committed: 2863344, IPC: 0.286048
543333333279: Event_86: system.cpu progress event, total committed:446615811, progress insts committed: 2863344, IPC: 0.286048
546666666612: Event_86: system.cpu progress event, total committed:449479155, progress insts committed: 2863344, IPC: 0.286048
549999999945: Event_86: system.cpu progress event, total committed:452342233, progress insts committed: 2863078, IPC: 0.286021
553333333278: Event_86: system.cpu progress event, total committed:455205587, progress insts committed: 2863354, IPC: 0.286049
556666666611: Event_86: system.cpu progress event, total committed:458068946, progress insts committed: 2863359, IPC: 00.28605
559999999944: Event_86: system.cpu progress event, total committed:460932306, progress insts committed: 2863360, IPC: 00.28605
563333333277: Event_86: system.cpu progress event, total committed:463795659, progress insts committed: 2863353, IPC: 0.286049
566666666610: Event_86: system.cpu progress event, total committed:466659018, progress insts committed: 2863359, IPC: 00.28605
569999999943: Event_86: system.cpu progress event, total committed:469522376, progress insts committed: 2863358, IPC: 0.286049
573333333276: Event_86: system.cpu progress event, total committed:472385731, progress insts committed: 2863355, IPC: 0.286049
576666666609: Event_86: system.cpu progress event, total committed:475248762, progress insts committed: 2863031, IPC: 0.286017
579999999942: Event_86: system.cpu progress event, total committed:478112115, progress insts committed: 2863353, IPC: 0.286049
583333333275: Event_86: system.cpu progress event, total committed:480975475, progress insts committed: 2863360, IPC: 00.28605
586666666608: Event_86: system.cpu progress event, total committed:483838829, progress insts committed: 2863354, IPC: 0.286049
589999999941: Event_86: system.cpu progress event, total committed:486702188, progress insts committed: 2863359, IPC: 00.28605
593333333274: Event_86: system.cpu progress event, total committed:489565548, progress insts committed: 2863360, IPC: 00.28605
596666666607: Event_86: system.cpu progress event, total committed:492428901, progress insts committed: 2863353, IPC: 0.286049
599999999940: Event_86: system.cpu progress event, total committed:495292260, progress insts committed: 2863359, IPC: 00.28605
603333333273: Event_86: system.cpu progress event, total committed:498155299, progress insts committed: 2863039, IPC: 0.286018
606666666606: Event_86: system.cpu progress event, total committed:501018643, progress insts committed: 2863344, IPC: 0.286048
609999999939: Event_86: system.cpu progress event, total committed:503882004, progress insts committed: 2863361, IPC: 00.28605
613333333272: Event_86: system.cpu progress event, total committed:506745357, progress insts committed: 2863353, IPC: 0.286049
616666666605: Event_86: system.cpu progress event, total committed:509608717, progress insts committed: 2863360, IPC: 00.28605
619999999938: Event_86: system.cpu progress event, total committed:512472071, progress insts committed: 2863354, IPC: 0.286049
623333333271: Event_86: system.cpu progress event, total committed:515335430, progress insts committed: 2863359, IPC: 00.28605
626666666604: Event_86: system.cpu progress event, total committed:518198790, progress insts committed: 2863360, IPC: 00.28605
629999999937: Event_86: system.cpu progress event, total committed:521061875, progress insts committed: 2863085, IPC: 0.286022
633333333270: Event_86: system.cpu progress event, total committed:523925219, progress insts committed: 2863344, IPC: 0.286048
636666666603: Event_86: system.cpu progress event, total committed:526788563, progress insts committed: 2863344, IPC: 0.286048
639999999936: Event_86: system.cpu progress event, total committed:529651907, progress insts committed: 2863344, IPC: 0.286048
643333333269: Event_86: system.cpu progress event, total committed:532515251, progress insts committed: 2863344, IPC: 0.286048
646666666602: Event_86: system.cpu progress event, total committed:535378599, progress insts committed: 2863348, IPC: 0.286048
649999999935: Event_86: system.cpu progress event, total committed:538241959, progress insts committed: 2863360, IPC: 00.28605
653333333268: Event_86: system.cpu progress event, total committed:541105283, progress insts committed: 2863324, IPC: 0.286046
656666666601: Event_86: system.cpu progress event, total committed:543968451, progress insts committed: 2863168, IPC: 00.28603
659999999934: Event_86: system.cpu progress event, total committed:546831795, progress insts committed: 2863344, IPC: 0.286048
663333333267: Event_86: system.cpu progress event, total committed:549695139, progress insts committed: 2863344, IPC: 0.286048
666666666600: Event_86: system.cpu progress event, total committed:552558483, progress insts committed: 2863344, IPC: 0.286048
Round 10 sbox outputs: 77 92 9b 3c 5b e0 e2 b8 05 09 f3 09 6c af 68 e3 
669999999933: Event_86: system.cpu progress event, total committed:555416611, progress insts committed: 2858128, IPC: 0.285527
673333333266: Event_86: system.cpu progress event, total committed:558313509, progress insts committed: 2896898, IPC: 000.2894
676666666599: Event_86: system.cpu progress event, total committed:561209603, progress insts committed: 2896094, IPC: 00.28932
679999999932: Event_86: system.cpu progress event, total committed:564105507, progress insts committed: 2895904, IPC: 0.289301
683333333265: Event_86: system.cpu progress event, total committed:567002779, progress insts committed: 2897272, IPC: 0.289437
686666666598: Event_86: system.cpu progress event, total committed:569898899, progress insts committed: 2896120, IPC: 0.289322
689999999931: Event_86: system.cpu progress event, total committed:572794578, progress insts committed: 2895679, IPC: 0.289278
693333333264: Event_86: system.cpu progress event, total committed:575690531, progress insts committed: 2895953, IPC: 0.289306
696666666597: Event_86: system.cpu progress event, total committed:578585555, progress insts committed: 2895024, IPC: 0.289213
699999999930: Event_86: system.cpu progress event, total committed:581482515, progress insts committed: 2896960, IPC: 0.289406
703333333263: Event_86: system.cpu progress event, total committed:584380707, progress insts committed: 2898192, IPC: 0.289529
706666666596: Event_86: system.cpu progress event, total committed:587274749, progress insts committed: 2894042, IPC: 0.289115
709999999929: Event_86: system.cpu progress event, total committed:590169084, progress insts committed: 2894335, IPC: 0.289144
713333333262: Event_86: system.cpu progress event, total committed:593065532, progress insts committed: 2896448, IPC: 0.289355
716666666595: Event_86: system.cpu progress event, total committed:595964965, progress insts committed: 2899433, IPC: 0.289653
719999999928: Event_86: system.cpu progress event, total committed:598863524, progress insts committed: 2898559, IPC: 0.289566
723333333261: Event_86: system.cpu progress event, total committed:601762082, progress insts committed: 2898558, IPC: 0.289566
726666666594: Event_86: system.cpu progress event, total committed:604656919, progress insts committed: 2894837, IPC: 0.289194
729999999927: Event_86: system.cpu progress event, total committed:607553437, progress insts committed: 2896518, IPC: 0.289362
733333333260: Event_86: system.cpu progress event, total committed:610448972, progress insts committed: 2895535, IPC: 0.289264
736666666593: Event_86: system.cpu progress event, total committed:613344540, progress insts committed: 2895568, IPC: 0.289267
739999999926: Event_86: system.cpu progress event, total committed:616241687, progress insts committed: 2897147, IPC: 0.289425
743333333259: Event_86: system.cpu progress event, total committed:619139718, progress insts committed: 2898031, IPC: 0.289513
746666666592: Event_86: system.cpu progress event, total committed:622037181, progress insts committed: 2897463, IPC: 0.289457
749999999925: Event_86: system.cpu progress event, total committed:624931088, progress insts committed: 2893907, IPC: 0.289101
753333333258: Event_86: system.cpu progress event, total committed:627827294, progress insts committed: 2896206, IPC: 0.289331
756666666591: Event_86: system.cpu progress event, total committed:630722508, progress insts committed: 2895214, IPC: 0.289232
759999999924: Event_86: system.cpu progress event, total committed:633619523, progress insts committed: 2897015, IPC: 0.289412
763333333257: Event_86: system.cpu progress event, total committed:636517011, progress insts committed: 2897488, IPC: 0.289459
766666666590: Event_86: system.cpu progress event, total committed:639415137, progress insts committed: 2898126, IPC: 0.289523
769999999923: Event_86: system.cpu progress event, total committed:642312887, progress insts committed: 2897750, IPC: 0.289485
773333333256: Event_86: system.cpu progress event, total committed:645208243, progress insts committed: 2895356, IPC: 0.289246
776666666589: Event_86: system.cpu progress event, total committed:648103975, progress insts committed: 2895732, IPC: 0.289284
779999999922: Event_86: system.cpu progress event, total committed:650998629, progress insts committed: 2894654, IPC: 0.289176
783333333255: Event_86: system.cpu progress event, total committed:653897393, progress insts committed: 2898764, IPC: 0.289587
786666666588: Event_86: system.cpu progress event, total committed:656792035, progress insts committed: 2894642, IPC: 0.289175
789999999921: Event_86: system.cpu progress event, total committed:659689347, progress insts committed: 2897312, IPC: 0.289441
793333333254: Event_86: system.cpu progress event, total committed:662590883, progress insts committed: 2901536, IPC: 0.289863
796666666587: Event_86: system.cpu progress event, total committed:665488019, progress insts committed: 2897136, IPC: 0.289424
799999999920: Event_86: system.cpu progress event, total committed:668387443, progress insts committed: 2899424, IPC: 0.289652
803333333253: Event_86: system.cpu progress event, total committed:671285107, progress insts committed: 2897664, IPC: 0.289477
806666666586: Event_86: system.cpu progress event, total committed:674183123, progress insts committed: 2898016, IPC: 0.289512
809999999919: Event_86: system.cpu progress event, total committed:677080611, progress insts committed: 2897488, IPC: 0.289459
813333333252: Event_86: system.cpu progress event, total committed:679977530, progress insts committed: 2896919, IPC: 0.289402
816666666585: Event_86: system.cpu progress event, total committed:682876267, progress insts committed: 2898737, IPC: 0.289584
819999999918: Event_86: system.cpu progress event, total committed:685771491, progress insts committed: 2895224, IPC: 0.289233
823333333251: Event_86: system.cpu progress event, total committed:688670211, progress insts committed: 2898720, IPC: 0.289582
826666666584: Event_86: system.cpu progress event, total committed:691566819, progress insts committed: 2896608, IPC: 0.289371
829999999917: Event_86: system.cpu progress event, total committed:694463955, progress insts committed: 2897136, IPC: 0.289424
833333333250: Event_86: system.cpu progress event, total committed:697359152, progress insts committed: 2895197, IPC: 00.28923
836666666583: Event_86: system.cpu progress event, total committed:700257875, progress insts committed: 2898723, IPC: 0.289582
839999999916: Event_86: system.cpu progress event, total committed:703155097, progress insts committed: 2897222, IPC: 0.289432
843333333249: Event_86: system.cpu progress event, total committed:706052642, progress insts committed: 2897545, IPC: 0.289465
846666666582: Event_86: system.cpu progress event, total committed:708949438, progress insts committed: 2896796, IPC: 00.28939
849999999915: Event_86: system.cpu progress event, total committed:711847646, progress insts committed: 2898208, IPC: 0.289531
853333333248: Event_86: system.cpu progress event, total committed:714745843, progress insts committed: 2898197, IPC: 00.28953
856666666581: Event_86: system.cpu progress event, total committed:717643681, progress insts committed: 2897838, IPC: 0.289494
859999999914: Event_86: system.cpu progress event, total committed:720542051, progress insts committed: 2898370, IPC: 0.289547
863333333247: Event_86: system.cpu progress event, total committed:723439741, progress insts committed: 2897690, IPC: 0.289479
866666666580: Event_86: system.cpu progress event, total committed:726339926, progress insts committed: 2900185, IPC: 0.289728
869999999913: Event_86: system.cpu progress event, total committed:729240675, progress insts committed: 2900749, IPC: 0.289785
873333333246: Event_86: system.cpu progress event, total committed:732137702, progress insts committed: 2897027, IPC: 0.289413
876666666579: Event_86: system.cpu progress event, total committed:735035948, progress insts committed: 2898246, IPC: 0.289535
879999999912: Event_86: system.cpu progress event, total committed:737933667, progress insts committed: 2897719, IPC: 0.289482
Attacker access time(2f): 637694818,  for ciphertext: 57 be 74 cd 45 f5 e7 1b 15 6b 19 fb c3 8e 39 a8  and round 10 key: 20 5e 87 2e 1e fc 8f 27 10 c4 82 43 af 1c db a1 
Exiting @ tick 881635476672 because exiting with last active thread context
