gem5 Simulator System.  http://gem5.org
gem5 is copyrighted software; use the --copyright option for details.

gem5 compiled Dec 20 2024 16:10:06
gem5 started Jan  1 2025 07:13:06
gem5 executing on computenode3, pid 4005749
command line: /home/nimish/mirage/perf_analysis/gem5/build/X86/gem5.opt --outdir ./stats/stat_208 /home/nimish/mirage/perf_analysis/gem5/configs/example/spec06_config_multiprogram.py --benchmark=specrand_i --num-cpus=1 --mem-size=8GB --mem-type=DDR4_2400_8x8 --cpu-type TimingSimpleCPU --caches --l2cache --l1d_size=512B --l1i_size=32kB --l2_size=16MB --l1d_assoc=8 --l1i_assoc=8 --l2_assoc=16 --mirage_mode=scatter-cache --l2_numSkews=2 --l2_TDR=1.75 --l2_EncrLat=3 --prog-interval=300Hz

Workload-0: 
['/home/nimish/mirage/AES_TBOX/C/build/AES-TBOX']
Global frequency set at 1000000000000 ticks per second
CWD: /home/nimish/mirage
      0: system.l2.tags.indexing_policy: Size of Tag-Store for Skewed-Assoc-Randomized - Sets:16384, with Assoc:16 
**** REAL SIMULATION ****
3333333333: Event_86: system.cpu progress event, total committed:3146675, progress insts committed: 3146675, IPC: 0.314353
6666666666: Event_86: system.cpu progress event, total committed:5859344, progress insts committed: 2712669, IPC: 0.270996
9999999999: Event_86: system.cpu progress event, total committed:8571971, progress insts committed: 2712627, IPC: 0.270991
13333333332: Event_86: system.cpu progress event, total committed:11284604, progress insts committed: 2712633, IPC: 0.270992
16666666665: Event_86: system.cpu progress event, total committed:13997251, progress insts committed: 2712647, IPC: 0.270993
19999999998: Event_86: system.cpu progress event, total committed:16709939, progress insts committed: 2712688, IPC: 0.270998
23333333331: Event_86: system.cpu progress event, total committed:19422587, progress insts committed: 2712648, IPC: 0.270994
26666666664: Event_86: system.cpu progress event, total committed:22135139, progress insts committed: 2712552, IPC: 0.270984
29999999997: Event_86: system.cpu progress event, total committed:24847632, progress insts committed: 2712493, IPC: 0.270978
33333333330: Event_86: system.cpu progress event, total committed:27560263, progress insts committed: 2712631, IPC: 0.270992
36666666663: Event_86: system.cpu progress event, total committed:30272890, progress insts committed: 2712627, IPC: 0.270991
39999999996: Event_86: system.cpu progress event, total committed:32985539, progress insts committed: 2712649, IPC: 0.270994
43333333329: Event_86: system.cpu progress event, total committed:35698227, progress insts committed: 2712688, IPC: 0.270998
46666666662: Event_86: system.cpu progress event, total committed:38410885, progress insts committed: 2712658, IPC: 0.270995
49999999995: Event_86: system.cpu progress event, total committed:41123512, progress insts committed: 2712627, IPC: 0.270991
53333333328: Event_86: system.cpu progress event, total committed:43835939, progress insts committed: 2712427, IPC: 0.270971
56666666661: Event_86: system.cpu progress event, total committed:46548553, progress insts committed: 2712614, IPC: 00.27099
59999999994: Event_86: system.cpu progress event, total committed:49261181, progress insts committed: 2712628, IPC: 0.270992
63333333327: Event_86: system.cpu progress event, total committed:51973827, progress insts committed: 2712646, IPC: 0.270993
66666666660: Event_86: system.cpu progress event, total committed:54686515, progress insts committed: 2712688, IPC: 0.270998
69999999993: Event_86: system.cpu progress event, total committed:57399170, progress insts committed: 2712655, IPC: 0.270994
73333333326: Event_86: system.cpu progress event, total committed:60111798, progress insts committed: 2712628, IPC: 0.270992
76666666659: Event_86: system.cpu progress event, total committed:62824425, progress insts committed: 2712627, IPC: 0.270991
79999999992: Event_86: system.cpu progress event, total committed:65536844, progress insts committed: 2712419, IPC: 0.270971
83333333325: Event_86: system.cpu progress event, total committed:68249468, progress insts committed: 2712624, IPC: 0.270991
86666666658: Event_86: system.cpu progress event, total committed:70962115, progress insts committed: 2712647, IPC: 0.270993
89999999991: Event_86: system.cpu progress event, total committed:73674803, progress insts committed: 2712688, IPC: 0.270998
93333333324: Event_86: system.cpu progress event, total committed:76387464, progress insts committed: 2712661, IPC: 0.270995
96666666657: Event_86: system.cpu progress event, total committed:79100089, progress insts committed: 2712625, IPC: 0.270991
99999999990: Event_86: system.cpu progress event, total committed:81812716, progress insts committed: 2712627, IPC: 0.270991
103333333323: Event_86: system.cpu progress event, total committed:84525379, progress insts committed: 2712663, IPC: 0.270995
106666666656: Event_86: system.cpu progress event, total committed:87237759, progress insts committed: 2712380, IPC: 0.270967
109999999989: Event_86: system.cpu progress event, total committed:89950403, progress insts committed: 2712644, IPC: 0.270993
113333333322: Event_86: system.cpu progress event, total committed:92663091, progress insts committed: 2712688, IPC: 0.270998
116666666655: Event_86: system.cpu progress event, total committed:95375752, progress insts committed: 2712661, IPC: 0.270995
119999999988: Event_86: system.cpu progress event, total committed:98088377, progress insts committed: 2712625, IPC: 0.270991
123333333321: Event_86: system.cpu progress event, total committed:100801004, progress insts committed: 2712627, IPC: 0.270991
126666666654: Event_86: system.cpu progress event, total committed:103513667, progress insts committed: 2712663, IPC: 0.270995
129999999987: Event_86: system.cpu progress event, total committed:106226355, progress insts committed: 2712688, IPC: 0.270998
133333333320: Event_86: system.cpu progress event, total committed:108938691, progress insts committed: 2712336, IPC: 0.270962
136666666653: Event_86: system.cpu progress event, total committed:111651379, progress insts committed: 2712688, IPC: 0.270998
139999999986: Event_86: system.cpu progress event, total committed:114364042, progress insts committed: 2712663, IPC: 0.270995
143333333319: Event_86: system.cpu progress event, total committed:117076668, progress insts committed: 2712626, IPC: 0.270991
146666666652: Event_86: system.cpu progress event, total committed:119789293, progress insts committed: 2712625, IPC: 0.270991
149999999985: Event_86: system.cpu progress event, total committed:122501955, progress insts committed: 2712662, IPC: 0.270995
153333333318: Event_86: system.cpu progress event, total committed:125214643, progress insts committed: 2712688, IPC: 0.270998
156666666651: Event_86: system.cpu progress event, total committed:127927287, progress insts committed: 2712644, IPC: 0.270993
159999999984: Event_86: system.cpu progress event, total committed:130639667, progress insts committed: 2712380, IPC: 0.270967
163333333317: Event_86: system.cpu progress event, total committed:133352330, progress insts committed: 2712663, IPC: 0.270995
166666666650: Event_86: system.cpu progress event, total committed:136064955, progress insts committed: 2712625, IPC: 0.270991
169999999983: Event_86: system.cpu progress event, total committed:138777582, progress insts committed: 2712627, IPC: 0.270991
173333333316: Event_86: system.cpu progress event, total committed:141490243, progress insts committed: 2712661, IPC: 0.270995
176666666649: Event_86: system.cpu progress event, total committed:144202931, progress insts committed: 2712688, IPC: 0.270998
179999999982: Event_86: system.cpu progress event, total committed:146915576, progress insts committed: 2712645, IPC: 0.270993
183333333315: Event_86: system.cpu progress event, total committed:149628131, progress insts committed: 2712555, IPC: 0.270984
186666666648: Event_86: system.cpu progress event, total committed:152340621, progress insts committed: 2712490, IPC: 0.270978
189999999981: Event_86: system.cpu progress event, total committed:155053246, progress insts committed: 2712625, IPC: 0.270991
193333333314: Event_86: system.cpu progress event, total committed:157765876, progress insts committed: 2712630, IPC: 0.270992
196666666647: Event_86: system.cpu progress event, total committed:160478531, progress insts committed: 2712655, IPC: 0.270994
199999999980: Event_86: system.cpu progress event, total committed:163191219, progress insts committed: 2712688, IPC: 0.270998
203333333313: Event_86: system.cpu progress event, total committed:165903866, progress insts committed: 2712647, IPC: 0.270993
206666666646: Event_86: system.cpu progress event, total committed:168616496, progress insts committed: 2712630, IPC: 0.270992
209999999979: Event_86: system.cpu progress event, total committed:171328931, progress insts committed: 2712435, IPC: 0.270972
213333333312: Event_86: system.cpu progress event, total committed:174041534, progress insts committed: 2712603, IPC: 0.270989
216666666645: Event_86: system.cpu progress event, total committed:176754164, progress insts committed: 2712630, IPC: 0.270992
219999999978: Event_86: system.cpu progress event, total committed:179466819, progress insts committed: 2712655, IPC: 0.270994
223333333311: Event_86: system.cpu progress event, total committed:182179507, progress insts committed: 2712688, IPC: 0.270998
226666666644: Event_86: system.cpu progress event, total committed:184892154, progress insts committed: 2712647, IPC: 0.270993
229999999977: Event_86: system.cpu progress event, total committed:187604778, progress insts committed: 2712624, IPC: 0.270991
233333333310: Event_86: system.cpu progress event, total committed:190317409, progress insts committed: 2712631, IPC: 0.270992
236666666643: Event_86: system.cpu progress event, total committed:193029823, progress insts committed: 2712414, IPC: 00.27097
239999999976: Event_86: system.cpu progress event, total committed:195742452, progress insts committed: 2712629, IPC: 0.270992
243333333309: Event_86: system.cpu progress event, total committed:198455107, progress insts committed: 2712655, IPC: 0.270994
246666666642: Event_86: system.cpu progress event, total committed:201167795, progress insts committed: 2712688, IPC: 0.270998
249999999975: Event_86: system.cpu progress event, total committed:203880443, progress insts committed: 2712648, IPC: 0.270994
253333333308: Event_86: system.cpu progress event, total committed:206593075, progress insts committed: 2712632, IPC: 0.270992
256666666641: Event_86: system.cpu progress event, total committed:209305701, progress insts committed: 2712626, IPC: 0.270991
259999999974: Event_86: system.cpu progress event, total committed:212018371, progress insts committed: 2712670, IPC: 0.270996
263333333307: Event_86: system.cpu progress event, total committed:214730741, progress insts committed: 2712370, IPC: 0.270966
266666666640: Event_86: system.cpu progress event, total committed:217443395, progress insts committed: 2712654, IPC: 0.270994
269999999973: Event_86: system.cpu progress event, total committed:220156083, progress insts committed: 2712688, IPC: 0.270998
273333333306: Event_86: system.cpu progress event, total committed:222868732, progress insts committed: 2712649, IPC: 0.270994
276666666639: Event_86: system.cpu progress event, total committed:225581360, progress insts committed: 2712628, IPC: 0.270992
279999999972: Event_86: system.cpu progress event, total committed:228293989, progress insts committed: 2712629, IPC: 0.270992
283333333305: Event_86: system.cpu progress event, total committed:231006659, progress insts committed: 2712670, IPC: 0.270996
286666666638: Event_86: system.cpu progress event, total committed:233719347, progress insts committed: 2712688, IPC: 0.270998
289999999971: Event_86: system.cpu progress event, total committed:236431683, progress insts committed: 2712336, IPC: 0.270962
293333333304: Event_86: system.cpu progress event, total committed:239144371, progress insts committed: 2712688, IPC: 0.270998
296666666637: Event_86: system.cpu progress event, total committed:241857023, progress insts committed: 2712652, IPC: 0.270994
299999999970: Event_86: system.cpu progress event, total committed:244569654, progress insts committed: 2712631, IPC: 0.270992
303333333303: Event_86: system.cpu progress event, total committed:247282279, progress insts committed: 2712625, IPC: 0.270991
306666666636: Event_86: system.cpu progress event, total committed:249994947, progress insts committed: 2712668, IPC: 0.270996
309999999969: Event_86: system.cpu progress event, total committed:252707635, progress insts committed: 2712688, IPC: 0.270998
313333333302: Event_86: system.cpu progress event, total committed:255420269, progress insts committed: 2712634, IPC: 0.270992
316666666635: Event_86: system.cpu progress event, total committed:258132659, progress insts committed: 2712390, IPC: 0.270968
319999999968: Event_86: system.cpu progress event, total committed:260845314, progress insts committed: 2712655, IPC: 0.270994
323333333301: Event_86: system.cpu progress event, total committed:263557942, progress insts committed: 2712628, IPC: 0.270992
326666666634: Event_86: system.cpu progress event, total committed:266270567, progress insts committed: 2712625, IPC: 0.270991
329999999967: Event_86: system.cpu progress event, total committed:268983235, progress insts committed: 2712668, IPC: 0.270996
333333333300: Event_86: system.cpu progress event, total committed:271695923, progress insts committed: 2712688, IPC: 0.270998
336666666633: Event_86: system.cpu progress event, total committed:274408562, progress insts committed: 2712639, IPC: 0.270993
339999999966: Event_86: system.cpu progress event, total committed:277121123, progress insts committed: 2712561, IPC: 0.270985
343333333299: Event_86: system.cpu progress event, total committed:279833602, progress insts committed: 2712479, IPC: 0.270977
346666666632: Event_86: system.cpu progress event, total committed:282546232, progress insts committed: 2712630, IPC: 0.270992
349999999965: Event_86: system.cpu progress event, total committed:285258857, progress insts committed: 2712625, IPC: 0.270991
353333333298: Event_86: system.cpu progress event, total committed:287971523, progress insts committed: 2712666, IPC: 0.270995
356666666631: Event_86: system.cpu progress event, total committed:290684211, progress insts committed: 2712688, IPC: 0.270998
359999999964: Event_86: system.cpu progress event, total committed:293396850, progress insts committed: 2712639, IPC: 0.270993
363333333297: Event_86: system.cpu progress event, total committed:296109477, progress insts committed: 2712627, IPC: 0.270991
366666666630: Event_86: system.cpu progress event, total committed:298821923, progress insts committed: 2712446, IPC: 0.270973
369999999963: Event_86: system.cpu progress event, total committed:301534520, progress insts committed: 2712597, IPC: 0.270988
373333333296: Event_86: system.cpu progress event, total committed:304247146, progress insts committed: 2712626, IPC: 0.270991
376666666629: Event_86: system.cpu progress event, total committed:306959811, progress insts committed: 2712665, IPC: 0.270995
379999999962: Event_86: system.cpu progress event, total committed:309672499, progress insts committed: 2712688, IPC: 0.270998
383333333295: Event_86: system.cpu progress event, total committed:312385141, progress insts committed: 2712642, IPC: 0.270993
386666666628: Event_86: system.cpu progress event, total committed:315097765, progress insts committed: 2712624, IPC: 0.270991
389999999961: Event_86: system.cpu progress event, total committed:317810390, progress insts committed: 2712625, IPC: 0.270991
393333333294: Event_86: system.cpu progress event, total committed:320522809, progress insts committed: 2712419, IPC: 0.270971
396666666627: Event_86: system.cpu progress event, total committed:323235436, progress insts committed: 2712627, IPC: 0.270991
399999999960: Event_86: system.cpu progress event, total committed:325948099, progress insts committed: 2712663, IPC: 0.270995
403333333293: Event_86: system.cpu progress event, total committed:328660787, progress insts committed: 2712688, IPC: 0.270998
406666666626: Event_86: system.cpu progress event, total committed:331373429, progress insts committed: 2712642, IPC: 0.270993
409999999959: Event_86: system.cpu progress event, total committed:334086056, progress insts committed: 2712627, IPC: 0.270991
413333333292: Event_86: system.cpu progress event, total committed:336798687, progress insts committed: 2712631, IPC: 0.270992
416666666625: Event_86: system.cpu progress event, total committed:339511363, progress insts committed: 2712676, IPC: 0.270996
419999999958: Event_86: system.cpu progress event, total committed:342223725, progress insts committed: 2712362, IPC: 0.270965
423333333291: Event_86: system.cpu progress event, total committed:344936387, progress insts committed: 2712662, IPC: 0.270995
426666666624: Event_86: system.cpu progress event, total committed:347649075, progress insts committed: 2712688, IPC: 0.270998
429999999957: Event_86: system.cpu progress event, total committed:350361719, progress insts committed: 2712644, IPC: 0.270993
433333333290: Event_86: system.cpu progress event, total committed:353074344, progress insts committed: 2712625, IPC: 0.270991
436666666623: Event_86: system.cpu progress event, total committed:355786970, progress insts committed: 2712626, IPC: 0.270991
439999999956: Event_86: system.cpu progress event, total committed:358499651, progress insts committed: 2712681, IPC: 0.270997
443333333289: Event_86: system.cpu progress event, total committed:361212339, progress insts committed: 2712688, IPC: 0.270998
446666666622: Event_86: system.cpu progress event, total committed:363924675, progress insts committed: 2712336, IPC: 0.270962
449999999955: Event_86: system.cpu progress event, total committed:366637363, progress insts committed: 2712688, IPC: 0.270998
453333333288: Event_86: system.cpu progress event, total committed:369350007, progress insts committed: 2712644, IPC: 0.270993
456666666621: Event_86: system.cpu progress event, total committed:372169285, progress insts committed: 2819278, IPC: 0.281646
459999999954: Event_86: system.cpu progress event, total committed:375032638, progress insts committed: 2863353, IPC: 0.286049
463333333287: Event_86: system.cpu progress event, total committed:377895998, progress insts committed: 2863360, IPC: 00.28605
466666666620: Event_86: system.cpu progress event, total committed:380759352, progress insts committed: 2863354, IPC: 0.286049
469999999953: Event_86: system.cpu progress event, total committed:383622711, progress insts committed: 2863359, IPC: 00.28605
473333333286: Event_86: system.cpu progress event, total committed:386485790, progress insts committed: 2863079, IPC: 0.286022
476666666619: Event_86: system.cpu progress event, total committed:389349134, progress insts committed: 2863344, IPC: 0.286048
479999999952: Event_86: system.cpu progress event, total committed:392212478, progress insts committed: 2863344, IPC: 0.286048
483333333285: Event_86: system.cpu progress event, total committed:395075822, progress insts committed: 2863344, IPC: 0.286048
486666666618: Event_86: system.cpu progress event, total committed:397939166, progress insts committed: 2863344, IPC: 0.286048
489999999951: Event_86: system.cpu progress event, total committed:400802527, progress insts committed: 2863361, IPC: 00.28605
493333333284: Event_86: system.cpu progress event, total committed:403665880, progress insts committed: 2863353, IPC: 0.286049
496666666617: Event_86: system.cpu progress event, total committed:406529198, progress insts committed: 2863318, IPC: 0.286045
499999999950: Event_86: system.cpu progress event, total committed:409392366, progress insts committed: 2863168, IPC: 00.28603
503333333283: Event_86: system.cpu progress event, total committed:412255710, progress insts committed: 2863344, IPC: 0.286048
506666666616: Event_86: system.cpu progress event, total committed:415119054, progress insts committed: 2863344, IPC: 0.286048
509999999949: Event_86: system.cpu progress event, total committed:417982398, progress insts committed: 2863344, IPC: 0.286048
513333333282: Event_86: system.cpu progress event, total committed:420845742, progress insts committed: 2863344, IPC: 0.286048
516666666615: Event_86: system.cpu progress event, total committed:423709086, progress insts committed: 2863344, IPC: 0.286048
519999999948: Event_86: system.cpu progress event, total committed:426572430, progress insts committed: 2863344, IPC: 0.286048
523333333281: Event_86: system.cpu progress event, total committed:429435598, progress insts committed: 2863168, IPC: 00.28603
526666666614: Event_86: system.cpu progress event, total committed:432298915, progress insts committed: 2863317, IPC: 0.286045
529999999947: Event_86: system.cpu progress event, total committed:435162268, progress insts committed: 2863353, IPC: 0.286049
533333333280: Event_86: system.cpu progress event, total committed:438025627, progress insts committed: 2863359, IPC: 00.28605
536666666613: Event_86: system.cpu progress event, total committed:440888974, progress insts committed: 2863347, IPC: 0.286048
539999999946: Event_86: system.cpu progress event, total committed:443752318, progress insts committed: 2863344, IPC: 0.286048
543333333279: Event_86: system.cpu progress event, total committed:446615662, progress insts committed: 2863344, IPC: 0.286048
546666666612: Event_86: system.cpu progress event, total committed:449479006, progress insts committed: 2863344, IPC: 0.286048
549999999945: Event_86: system.cpu progress event, total committed:452342084, progress insts committed: 2863078, IPC: 0.286021
553333333278: Event_86: system.cpu progress event, total committed:455205438, progress insts committed: 2863354, IPC: 0.286049
556666666611: Event_86: system.cpu progress event, total committed:458068797, progress insts committed: 2863359, IPC: 00.28605
559999999944: Event_86: system.cpu progress event, total committed:460932157, progress insts committed: 2863360, IPC: 00.28605
563333333277: Event_86: system.cpu progress event, total committed:463795510, progress insts committed: 2863353, IPC: 0.286049
566666666610: Event_86: system.cpu progress event, total committed:466658869, progress insts committed: 2863359, IPC: 00.28605
569999999943: Event_86: system.cpu progress event, total committed:469522227, progress insts committed: 2863358, IPC: 0.286049
573333333276: Event_86: system.cpu progress event, total committed:472385582, progress insts committed: 2863355, IPC: 0.286049
576666666609: Event_86: system.cpu progress event, total committed:475248613, progress insts committed: 2863031, IPC: 0.286017
579999999942: Event_86: system.cpu progress event, total committed:478111966, progress insts committed: 2863353, IPC: 0.286049
583333333275: Event_86: system.cpu progress event, total committed:480975326, progress insts committed: 2863360, IPC: 00.28605
586666666608: Event_86: system.cpu progress event, total committed:483838680, progress insts committed: 2863354, IPC: 0.286049
589999999941: Event_86: system.cpu progress event, total committed:486702039, progress insts committed: 2863359, IPC: 00.28605
593333333274: Event_86: system.cpu progress event, total committed:489565399, progress insts committed: 2863360, IPC: 00.28605
596666666607: Event_86: system.cpu progress event, total committed:492428752, progress insts committed: 2863353, IPC: 0.286049
599999999940: Event_86: system.cpu progress event, total committed:495292111, progress insts committed: 2863359, IPC: 00.28605
603333333273: Event_86: system.cpu progress event, total committed:498155150, progress insts committed: 2863039, IPC: 0.286018
606666666606: Event_86: system.cpu progress event, total committed:501018494, progress insts committed: 2863344, IPC: 0.286048
609999999939: Event_86: system.cpu progress event, total committed:503881855, progress insts committed: 2863361, IPC: 00.28605
613333333272: Event_86: system.cpu progress event, total committed:506745208, progress insts committed: 2863353, IPC: 0.286049
616666666605: Event_86: system.cpu progress event, total committed:509608568, progress insts committed: 2863360, IPC: 00.28605
619999999938: Event_86: system.cpu progress event, total committed:512471922, progress insts committed: 2863354, IPC: 0.286049
623333333271: Event_86: system.cpu progress event, total committed:515335281, progress insts committed: 2863359, IPC: 00.28605
626666666604: Event_86: system.cpu progress event, total committed:518198641, progress insts committed: 2863360, IPC: 00.28605
629999999937: Event_86: system.cpu progress event, total committed:521061726, progress insts committed: 2863085, IPC: 0.286022
633333333270: Event_86: system.cpu progress event, total committed:523925070, progress insts committed: 2863344, IPC: 0.286048
636666666603: Event_86: system.cpu progress event, total committed:526788414, progress insts committed: 2863344, IPC: 0.286048
639999999936: Event_86: system.cpu progress event, total committed:529651758, progress insts committed: 2863344, IPC: 0.286048
643333333269: Event_86: system.cpu progress event, total committed:532515102, progress insts committed: 2863344, IPC: 0.286048
646666666602: Event_86: system.cpu progress event, total committed:535378450, progress insts committed: 2863348, IPC: 0.286048
649999999935: Event_86: system.cpu progress event, total committed:538241810, progress insts committed: 2863360, IPC: 00.28605
653333333268: Event_86: system.cpu progress event, total committed:541105134, progress insts committed: 2863324, IPC: 0.286046
656666666601: Event_86: system.cpu progress event, total committed:543968302, progress insts committed: 2863168, IPC: 00.28603
659999999934: Event_86: system.cpu progress event, total committed:546831646, progress insts committed: 2863344, IPC: 0.286048
663333333267: Event_86: system.cpu progress event, total committed:549694990, progress insts committed: 2863344, IPC: 0.286048
666666666600: Event_86: system.cpu progress event, total committed:552558334, progress insts committed: 2863344, IPC: 0.286048
Round 10 sbox outputs: 8f 32 dc 2f 34 e0 1a b5 56 b3 cc d5 4b 4e 66 77 
669999999933: Event_86: system.cpu progress event, total committed:555416434, progress insts committed: 2858100, IPC: 0.285524
673333333266: Event_86: system.cpu progress event, total committed:558313160, progress insts committed: 2896726, IPC: 0.289383
676666666599: Event_86: system.cpu progress event, total committed:561209426, progress insts committed: 2896266, IPC: 0.289337
679999999932: Event_86: system.cpu progress event, total committed:564104450, progress insts committed: 2895024, IPC: 0.289213
683333333265: Event_86: system.cpu progress event, total committed:567001546, progress insts committed: 2897096, IPC: 00.28942
686666666598: Event_86: system.cpu progress event, total committed:569897113, progress insts committed: 2895567, IPC: 0.289267
689999999931: Event_86: system.cpu progress event, total committed:572790402, progress insts committed: 2893289, IPC: 00.28904
693333333264: Event_86: system.cpu progress event, total committed:575685954, progress insts committed: 2895552, IPC: 0.289266
696666666597: Event_86: system.cpu progress event, total committed:578580978, progress insts committed: 2895024, IPC: 0.289213
699999999930: Event_86: system.cpu progress event, total committed:581478114, progress insts committed: 2897136, IPC: 0.289424
703333333263: Event_86: system.cpu progress event, total committed:584373339, progress insts committed: 2895225, IPC: 0.289233
706666666596: Event_86: system.cpu progress event, total committed:587270527, progress insts committed: 2897188, IPC: 0.289429
709999999929: Event_86: system.cpu progress event, total committed:590165915, progress insts committed: 2895388, IPC: 0.289249
713333333262: Event_86: system.cpu progress event, total committed:593059899, progress insts committed: 2893984, IPC: 0.289109
716666666595: Event_86: system.cpu progress event, total committed:595954228, progress insts committed: 2894329, IPC: 0.289143
719999999928: Event_86: system.cpu progress event, total committed:598851907, progress insts committed: 2897679, IPC: 0.289478
723333333261: Event_86: system.cpu progress event, total committed:601750641, progress insts committed: 2898734, IPC: 0.289584
726666666594: Event_86: system.cpu progress event, total committed:604645149, progress insts committed: 2894508, IPC: 0.289161
729999999927: Event_86: system.cpu progress event, total committed:607542482, progress insts committed: 2897333, IPC: 0.289444
733333333260: Event_86: system.cpu progress event, total committed:610438210, progress insts committed: 2895728, IPC: 0.289283
736666666593: Event_86: system.cpu progress event, total committed:613335739, progress insts committed: 2897529, IPC: 0.289463
739999999926: Event_86: system.cpu progress event, total committed:616232886, progress insts committed: 2897147, IPC: 0.289425
743333333259: Event_86: system.cpu progress event, total committed:619130037, progress insts committed: 2897151, IPC: 0.289425
746666666592: Event_86: system.cpu progress event, total committed:622027500, progress insts committed: 2897463, IPC: 0.289457
749999999925: Event_86: system.cpu progress event, total committed:624922841, progress insts committed: 2895341, IPC: 0.289245
753333333258: Event_86: system.cpu progress event, total committed:627818584, progress insts committed: 2895743, IPC: 0.289285
756666666591: Event_86: system.cpu progress event, total committed:630712354, progress insts committed: 2893770, IPC: 0.289088
759999999924: Event_86: system.cpu progress event, total committed:633609138, progress insts committed: 2896784, IPC: 0.289389
763333333257: Event_86: system.cpu progress event, total committed:636508306, progress insts committed: 2899168, IPC: 0.289627
766666666590: Event_86: system.cpu progress event, total committed:639403127, progress insts committed: 2894821, IPC: 0.289193
769999999923: Event_86: system.cpu progress event, total committed:642299686, progress insts committed: 2896559, IPC: 0.289366
773333333256: Event_86: system.cpu progress event, total committed:645195570, progress insts committed: 2895884, IPC: 0.289299
776666666589: Event_86: system.cpu progress event, total committed:648093938, progress insts committed: 2898368, IPC: 0.289547
779999999922: Event_86: system.cpu progress event, total committed:650990707, progress insts committed: 2896769, IPC: 0.289387
783333333255: Event_86: system.cpu progress event, total committed:653888279, progress insts committed: 2897572, IPC: 0.289467
786666666588: Event_86: system.cpu progress event, total committed:656787458, progress insts committed: 2899179, IPC: 0.289628
789999999921: Event_86: system.cpu progress event, total committed:659683010, progress insts committed: 2895552, IPC: 0.289266
793333333254: Event_86: system.cpu progress event, total committed:662578210, progress insts committed: 2895200, IPC: 00.28923
796666666587: Event_86: system.cpu progress event, total committed:665476226, progress insts committed: 2898016, IPC: 0.289512
799999999920: Event_86: system.cpu progress event, total committed:668375738, progress insts committed: 2899512, IPC: 0.289661
803333333253: Event_86: system.cpu progress event, total committed:671274370, progress insts committed: 2898632, IPC: 0.289573
806666666586: Event_86: system.cpu progress event, total committed:674172570, progress insts committed: 2898200, IPC: 00.28953
809999999919: Event_86: system.cpu progress event, total committed:677069698, progress insts committed: 2897128, IPC: 0.289423
813333333252: Event_86: system.cpu progress event, total committed:679966482, progress insts committed: 2896784, IPC: 0.289389
816666666585: Event_86: system.cpu progress event, total committed:682863970, progress insts committed: 2897488, IPC: 0.289459
819999999918: Event_86: system.cpu progress event, total committed:685758466, progress insts committed: 2894496, IPC: 00.28916
823333333251: Event_86: system.cpu progress event, total committed:688655276, progress insts committed: 2896810, IPC: 0.289391
826666666584: Event_86: system.cpu progress event, total committed:691553266, progress insts committed: 2897990, IPC: 0.289509
829999999917: Event_86: system.cpu progress event, total committed:694450806, progress insts committed: 2897540, IPC: 0.289464
833333333250: Event_86: system.cpu progress event, total committed:697346658, progress insts committed: 2895852, IPC: 0.289296
836666666583: Event_86: system.cpu progress event, total committed:700246962, progress insts committed: 2900304, IPC: 00.28974
839999999916: Event_86: system.cpu progress event, total committed:703142291, progress insts committed: 2895329, IPC: 0.289243
843333333249: Event_86: system.cpu progress event, total committed:706037819, progress insts committed: 2895528, IPC: 0.289263
846666666582: Event_86: system.cpu progress event, total committed:708937842, progress insts committed: 2900023, IPC: 0.289712
849999999915: Event_86: system.cpu progress event, total committed:711834093, progress insts committed: 2896251, IPC: 0.289335
853333333248: Event_86: system.cpu progress event, total committed:714731586, progress insts committed: 2897493, IPC: 00.28946
856666666581: Event_86: system.cpu progress event, total committed:717629602, progress insts committed: 2898016, IPC: 0.289512
859999999914: Event_86: system.cpu progress event, total committed:720526738, progress insts committed: 2897136, IPC: 0.289424
863333333247: Event_86: system.cpu progress event, total committed:723427109, progress insts committed: 2900371, IPC: 0.289747
866666666580: Event_86: system.cpu progress event, total committed:726323381, progress insts committed: 2896272, IPC: 0.289338
869999999913: Event_86: system.cpu progress event, total committed:729223833, progress insts committed: 2900452, IPC: 0.289755
873333333246: Event_86: system.cpu progress event, total committed:732123133, progress insts committed: 2899300, IPC: 00.28964
876666666579: Event_86: system.cpu progress event, total committed:735021653, progress insts committed: 2898520, IPC: 0.289562
879999999912: Event_86: system.cpu progress event, total committed:737918183, progress insts committed: 2896530, IPC: 0.289363
Attacker access time(2f): 637751551,  for ciphertext: af be 4b 59 2a 4f e9 08 46 8a 5e f6 e4 2e c1 74  and round 10 key: 20 5e 87 2e 1e fc 8f 27 10 c4 82 43 af 1c db a1 
Exiting @ tick 881654468661 because exiting with last active thread context
