gem5 Simulator System.  http://gem5.org
gem5 is copyrighted software; use the --copyright option for details.

gem5 compiled Dec 20 2024 16:10:06
gem5 started Dec 31 2024 10:54:25
gem5 executing on computenode3, pid 3995325
command line: /home/nimish/mirage/perf_analysis/gem5/build/X86/gem5.opt --outdir ./stats/stat_1183 /home/nimish/mirage/perf_analysis/gem5/configs/example/spec06_config_multiprogram.py --benchmark=specrand_i --num-cpus=1 --mem-size=8GB --mem-type=DDR4_2400_8x8 --cpu-type TimingSimpleCPU --caches --l2cache --l1d_size=512B --l1i_size=32kB --l2_size=16MB --l1d_assoc=8 --l1i_assoc=8 --l2_assoc=16 --mirage_mode=scatter-cache --l2_numSkews=2 --l2_TDR=1.75 --l2_EncrLat=3 --prog-interval=300Hz

Workload-0: 
['/home/nimish/mirage/AES_TBOX/C/build/AES-TBOX']
Global frequency set at 1000000000000 ticks per second
CWD: /home/nimish/mirage
      0: system.l2.tags.indexing_policy: Size of Tag-Store for Skewed-Assoc-Randomized - Sets:16384, with Assoc:16 
**** REAL SIMULATION ****
3333333333: Event_86: system.cpu progress event, total committed:3146738, progress insts committed: 3146738, IPC: 0.314359
6666666666: Event_86: system.cpu progress event, total committed:5859407, progress insts committed: 2712669, IPC: 0.270996
9999999999: Event_86: system.cpu progress event, total committed:8572034, progress insts committed: 2712627, IPC: 0.270991
13333333332: Event_86: system.cpu progress event, total committed:11284667, progress insts committed: 2712633, IPC: 0.270992
16666666665: Event_86: system.cpu progress event, total committed:13997314, progress insts committed: 2712647, IPC: 0.270993
19999999998: Event_86: system.cpu progress event, total committed:16710002, progress insts committed: 2712688, IPC: 0.270998
23333333331: Event_86: system.cpu progress event, total committed:19422650, progress insts committed: 2712648, IPC: 0.270994
26666666664: Event_86: system.cpu progress event, total committed:22135202, progress insts committed: 2712552, IPC: 0.270984
29999999997: Event_86: system.cpu progress event, total committed:24847695, progress insts committed: 2712493, IPC: 0.270978
33333333330: Event_86: system.cpu progress event, total committed:27560326, progress insts committed: 2712631, IPC: 0.270992
36666666663: Event_86: system.cpu progress event, total committed:30272953, progress insts committed: 2712627, IPC: 0.270991
39999999996: Event_86: system.cpu progress event, total committed:32985602, progress insts committed: 2712649, IPC: 0.270994
43333333329: Event_86: system.cpu progress event, total committed:35698290, progress insts committed: 2712688, IPC: 0.270998
46666666662: Event_86: system.cpu progress event, total committed:38410948, progress insts committed: 2712658, IPC: 0.270995
49999999995: Event_86: system.cpu progress event, total committed:41123575, progress insts committed: 2712627, IPC: 0.270991
53333333328: Event_86: system.cpu progress event, total committed:43836002, progress insts committed: 2712427, IPC: 0.270971
56666666661: Event_86: system.cpu progress event, total committed:46548616, progress insts committed: 2712614, IPC: 00.27099
59999999994: Event_86: system.cpu progress event, total committed:49261244, progress insts committed: 2712628, IPC: 0.270992
63333333327: Event_86: system.cpu progress event, total committed:51973890, progress insts committed: 2712646, IPC: 0.270993
66666666660: Event_86: system.cpu progress event, total committed:54686578, progress insts committed: 2712688, IPC: 0.270998
69999999993: Event_86: system.cpu progress event, total committed:57399233, progress insts committed: 2712655, IPC: 0.270994
73333333326: Event_86: system.cpu progress event, total committed:60111861, progress insts committed: 2712628, IPC: 0.270992
76666666659: Event_86: system.cpu progress event, total committed:62824488, progress insts committed: 2712627, IPC: 0.270991
79999999992: Event_86: system.cpu progress event, total committed:65536907, progress insts committed: 2712419, IPC: 0.270971
83333333325: Event_86: system.cpu progress event, total committed:68249531, progress insts committed: 2712624, IPC: 0.270991
86666666658: Event_86: system.cpu progress event, total committed:70962178, progress insts committed: 2712647, IPC: 0.270993
89999999991: Event_86: system.cpu progress event, total committed:73674866, progress insts committed: 2712688, IPC: 0.270998
93333333324: Event_86: system.cpu progress event, total committed:76387527, progress insts committed: 2712661, IPC: 0.270995
96666666657: Event_86: system.cpu progress event, total committed:79100152, progress insts committed: 2712625, IPC: 0.270991
99999999990: Event_86: system.cpu progress event, total committed:81812779, progress insts committed: 2712627, IPC: 0.270991
103333333323: Event_86: system.cpu progress event, total committed:84525442, progress insts committed: 2712663, IPC: 0.270995
106666666656: Event_86: system.cpu progress event, total committed:87237822, progress insts committed: 2712380, IPC: 0.270967
109999999989: Event_86: system.cpu progress event, total committed:89950466, progress insts committed: 2712644, IPC: 0.270993
113333333322: Event_86: system.cpu progress event, total committed:92663154, progress insts committed: 2712688, IPC: 0.270998
116666666655: Event_86: system.cpu progress event, total committed:95375815, progress insts committed: 2712661, IPC: 0.270995
119999999988: Event_86: system.cpu progress event, total committed:98088440, progress insts committed: 2712625, IPC: 0.270991
123333333321: Event_86: system.cpu progress event, total committed:100801067, progress insts committed: 2712627, IPC: 0.270991
126666666654: Event_86: system.cpu progress event, total committed:103513730, progress insts committed: 2712663, IPC: 0.270995
129999999987: Event_86: system.cpu progress event, total committed:106226418, progress insts committed: 2712688, IPC: 0.270998
133333333320: Event_86: system.cpu progress event, total committed:108938754, progress insts committed: 2712336, IPC: 0.270962
136666666653: Event_86: system.cpu progress event, total committed:111651442, progress insts committed: 2712688, IPC: 0.270998
139999999986: Event_86: system.cpu progress event, total committed:114364105, progress insts committed: 2712663, IPC: 0.270995
143333333319: Event_86: system.cpu progress event, total committed:117076731, progress insts committed: 2712626, IPC: 0.270991
146666666652: Event_86: system.cpu progress event, total committed:119789356, progress insts committed: 2712625, IPC: 0.270991
149999999985: Event_86: system.cpu progress event, total committed:122502018, progress insts committed: 2712662, IPC: 0.270995
153333333318: Event_86: system.cpu progress event, total committed:125214706, progress insts committed: 2712688, IPC: 0.270998
156666666651: Event_86: system.cpu progress event, total committed:127927350, progress insts committed: 2712644, IPC: 0.270993
159999999984: Event_86: system.cpu progress event, total committed:130639730, progress insts committed: 2712380, IPC: 0.270967
163333333317: Event_86: system.cpu progress event, total committed:133352393, progress insts committed: 2712663, IPC: 0.270995
166666666650: Event_86: system.cpu progress event, total committed:136065018, progress insts committed: 2712625, IPC: 0.270991
169999999983: Event_86: system.cpu progress event, total committed:138777645, progress insts committed: 2712627, IPC: 0.270991
173333333316: Event_86: system.cpu progress event, total committed:141490306, progress insts committed: 2712661, IPC: 0.270995
176666666649: Event_86: system.cpu progress event, total committed:144202994, progress insts committed: 2712688, IPC: 0.270998
179999999982: Event_86: system.cpu progress event, total committed:146915639, progress insts committed: 2712645, IPC: 0.270993
183333333315: Event_86: system.cpu progress event, total committed:149628194, progress insts committed: 2712555, IPC: 0.270984
186666666648: Event_86: system.cpu progress event, total committed:152340684, progress insts committed: 2712490, IPC: 0.270978
189999999981: Event_86: system.cpu progress event, total committed:155053309, progress insts committed: 2712625, IPC: 0.270991
193333333314: Event_86: system.cpu progress event, total committed:157765939, progress insts committed: 2712630, IPC: 0.270992
196666666647: Event_86: system.cpu progress event, total committed:160478594, progress insts committed: 2712655, IPC: 0.270994
199999999980: Event_86: system.cpu progress event, total committed:163191282, progress insts committed: 2712688, IPC: 0.270998
203333333313: Event_86: system.cpu progress event, total committed:165903929, progress insts committed: 2712647, IPC: 0.270993
206666666646: Event_86: system.cpu progress event, total committed:168616559, progress insts committed: 2712630, IPC: 0.270992
209999999979: Event_86: system.cpu progress event, total committed:171328994, progress insts committed: 2712435, IPC: 0.270972
213333333312: Event_86: system.cpu progress event, total committed:174041597, progress insts committed: 2712603, IPC: 0.270989
216666666645: Event_86: system.cpu progress event, total committed:176754227, progress insts committed: 2712630, IPC: 0.270992
219999999978: Event_86: system.cpu progress event, total committed:179466882, progress insts committed: 2712655, IPC: 0.270994
223333333311: Event_86: system.cpu progress event, total committed:182179570, progress insts committed: 2712688, IPC: 0.270998
226666666644: Event_86: system.cpu progress event, total committed:184892217, progress insts committed: 2712647, IPC: 0.270993
229999999977: Event_86: system.cpu progress event, total committed:187604841, progress insts committed: 2712624, IPC: 0.270991
233333333310: Event_86: system.cpu progress event, total committed:190317472, progress insts committed: 2712631, IPC: 0.270992
236666666643: Event_86: system.cpu progress event, total committed:193029886, progress insts committed: 2712414, IPC: 00.27097
239999999976: Event_86: system.cpu progress event, total committed:195742515, progress insts committed: 2712629, IPC: 0.270992
243333333309: Event_86: system.cpu progress event, total committed:198455170, progress insts committed: 2712655, IPC: 0.270994
246666666642: Event_86: system.cpu progress event, total committed:201167858, progress insts committed: 2712688, IPC: 0.270998
249999999975: Event_86: system.cpu progress event, total committed:203880506, progress insts committed: 2712648, IPC: 0.270994
253333333308: Event_86: system.cpu progress event, total committed:206593138, progress insts committed: 2712632, IPC: 0.270992
256666666641: Event_86: system.cpu progress event, total committed:209305764, progress insts committed: 2712626, IPC: 0.270991
259999999974: Event_86: system.cpu progress event, total committed:212018434, progress insts committed: 2712670, IPC: 0.270996
263333333307: Event_86: system.cpu progress event, total committed:214730804, progress insts committed: 2712370, IPC: 0.270966
266666666640: Event_86: system.cpu progress event, total committed:217443458, progress insts committed: 2712654, IPC: 0.270994
269999999973: Event_86: system.cpu progress event, total committed:220156146, progress insts committed: 2712688, IPC: 0.270998
273333333306: Event_86: system.cpu progress event, total committed:222868795, progress insts committed: 2712649, IPC: 0.270994
276666666639: Event_86: system.cpu progress event, total committed:225581423, progress insts committed: 2712628, IPC: 0.270992
279999999972: Event_86: system.cpu progress event, total committed:228294052, progress insts committed: 2712629, IPC: 0.270992
283333333305: Event_86: system.cpu progress event, total committed:231006722, progress insts committed: 2712670, IPC: 0.270996
286666666638: Event_86: system.cpu progress event, total committed:233719410, progress insts committed: 2712688, IPC: 0.270998
289999999971: Event_86: system.cpu progress event, total committed:236431746, progress insts committed: 2712336, IPC: 0.270962
293333333304: Event_86: system.cpu progress event, total committed:239144434, progress insts committed: 2712688, IPC: 0.270998
296666666637: Event_86: system.cpu progress event, total committed:241857086, progress insts committed: 2712652, IPC: 0.270994
299999999970: Event_86: system.cpu progress event, total committed:244569717, progress insts committed: 2712631, IPC: 0.270992
303333333303: Event_86: system.cpu progress event, total committed:247282342, progress insts committed: 2712625, IPC: 0.270991
306666666636: Event_86: system.cpu progress event, total committed:249995010, progress insts committed: 2712668, IPC: 0.270996
309999999969: Event_86: system.cpu progress event, total committed:252707698, progress insts committed: 2712688, IPC: 0.270998
313333333302: Event_86: system.cpu progress event, total committed:255420332, progress insts committed: 2712634, IPC: 0.270992
316666666635: Event_86: system.cpu progress event, total committed:258132722, progress insts committed: 2712390, IPC: 0.270968
319999999968: Event_86: system.cpu progress event, total committed:260845377, progress insts committed: 2712655, IPC: 0.270994
323333333301: Event_86: system.cpu progress event, total committed:263558005, progress insts committed: 2712628, IPC: 0.270992
326666666634: Event_86: system.cpu progress event, total committed:266270630, progress insts committed: 2712625, IPC: 0.270991
329999999967: Event_86: system.cpu progress event, total committed:268983298, progress insts committed: 2712668, IPC: 0.270996
333333333300: Event_86: system.cpu progress event, total committed:271695986, progress insts committed: 2712688, IPC: 0.270998
336666666633: Event_86: system.cpu progress event, total committed:274408625, progress insts committed: 2712639, IPC: 0.270993
339999999966: Event_86: system.cpu progress event, total committed:277121186, progress insts committed: 2712561, IPC: 0.270985
343333333299: Event_86: system.cpu progress event, total committed:279833665, progress insts committed: 2712479, IPC: 0.270977
346666666632: Event_86: system.cpu progress event, total committed:282546295, progress insts committed: 2712630, IPC: 0.270992
349999999965: Event_86: system.cpu progress event, total committed:285258920, progress insts committed: 2712625, IPC: 0.270991
353333333298: Event_86: system.cpu progress event, total committed:287971586, progress insts committed: 2712666, IPC: 0.270995
356666666631: Event_86: system.cpu progress event, total committed:290684274, progress insts committed: 2712688, IPC: 0.270998
359999999964: Event_86: system.cpu progress event, total committed:293396913, progress insts committed: 2712639, IPC: 0.270993
363333333297: Event_86: system.cpu progress event, total committed:296109540, progress insts committed: 2712627, IPC: 0.270991
366666666630: Event_86: system.cpu progress event, total committed:298821986, progress insts committed: 2712446, IPC: 0.270973
369999999963: Event_86: system.cpu progress event, total committed:301534583, progress insts committed: 2712597, IPC: 0.270988
373333333296: Event_86: system.cpu progress event, total committed:304247209, progress insts committed: 2712626, IPC: 0.270991
376666666629: Event_86: system.cpu progress event, total committed:306959874, progress insts committed: 2712665, IPC: 0.270995
379999999962: Event_86: system.cpu progress event, total committed:309672562, progress insts committed: 2712688, IPC: 0.270998
383333333295: Event_86: system.cpu progress event, total committed:312385204, progress insts committed: 2712642, IPC: 0.270993
386666666628: Event_86: system.cpu progress event, total committed:315097828, progress insts committed: 2712624, IPC: 0.270991
389999999961: Event_86: system.cpu progress event, total committed:317810453, progress insts committed: 2712625, IPC: 0.270991
393333333294: Event_86: system.cpu progress event, total committed:320522872, progress insts committed: 2712419, IPC: 0.270971
396666666627: Event_86: system.cpu progress event, total committed:323235499, progress insts committed: 2712627, IPC: 0.270991
399999999960: Event_86: system.cpu progress event, total committed:325948162, progress insts committed: 2712663, IPC: 0.270995
403333333293: Event_86: system.cpu progress event, total committed:328660850, progress insts committed: 2712688, IPC: 0.270998
406666666626: Event_86: system.cpu progress event, total committed:331373492, progress insts committed: 2712642, IPC: 0.270993
409999999959: Event_86: system.cpu progress event, total committed:334086119, progress insts committed: 2712627, IPC: 0.270991
413333333292: Event_86: system.cpu progress event, total committed:336798750, progress insts committed: 2712631, IPC: 0.270992
416666666625: Event_86: system.cpu progress event, total committed:339511426, progress insts committed: 2712676, IPC: 0.270996
419999999958: Event_86: system.cpu progress event, total committed:342223788, progress insts committed: 2712362, IPC: 0.270965
423333333291: Event_86: system.cpu progress event, total committed:344936450, progress insts committed: 2712662, IPC: 0.270995
426666666624: Event_86: system.cpu progress event, total committed:347649138, progress insts committed: 2712688, IPC: 0.270998
429999999957: Event_86: system.cpu progress event, total committed:350361782, progress insts committed: 2712644, IPC: 0.270993
433333333290: Event_86: system.cpu progress event, total committed:353074407, progress insts committed: 2712625, IPC: 0.270991
436666666623: Event_86: system.cpu progress event, total committed:355787033, progress insts committed: 2712626, IPC: 0.270991
439999999956: Event_86: system.cpu progress event, total committed:358499714, progress insts committed: 2712681, IPC: 0.270997
443333333289: Event_86: system.cpu progress event, total committed:361212402, progress insts committed: 2712688, IPC: 0.270998
446666666622: Event_86: system.cpu progress event, total committed:363924738, progress insts committed: 2712336, IPC: 0.270962
449999999955: Event_86: system.cpu progress event, total committed:366637426, progress insts committed: 2712688, IPC: 0.270998
453333333288: Event_86: system.cpu progress event, total committed:369350070, progress insts committed: 2712644, IPC: 0.270993
456666666621: Event_86: system.cpu progress event, total committed:372169348, progress insts committed: 2819278, IPC: 0.281646
459999999954: Event_86: system.cpu progress event, total committed:375032701, progress insts committed: 2863353, IPC: 0.286049
463333333287: Event_86: system.cpu progress event, total committed:377896061, progress insts committed: 2863360, IPC: 00.28605
466666666620: Event_86: system.cpu progress event, total committed:380759415, progress insts committed: 2863354, IPC: 0.286049
469999999953: Event_86: system.cpu progress event, total committed:383622774, progress insts committed: 2863359, IPC: 00.28605
473333333286: Event_86: system.cpu progress event, total committed:386485853, progress insts committed: 2863079, IPC: 0.286022
476666666619: Event_86: system.cpu progress event, total committed:389349197, progress insts committed: 2863344, IPC: 0.286048
479999999952: Event_86: system.cpu progress event, total committed:392212541, progress insts committed: 2863344, IPC: 0.286048
483333333285: Event_86: system.cpu progress event, total committed:395075885, progress insts committed: 2863344, IPC: 0.286048
486666666618: Event_86: system.cpu progress event, total committed:397939229, progress insts committed: 2863344, IPC: 0.286048
489999999951: Event_86: system.cpu progress event, total committed:400802590, progress insts committed: 2863361, IPC: 00.28605
493333333284: Event_86: system.cpu progress event, total committed:403665943, progress insts committed: 2863353, IPC: 0.286049
496666666617: Event_86: system.cpu progress event, total committed:406529261, progress insts committed: 2863318, IPC: 0.286045
499999999950: Event_86: system.cpu progress event, total committed:409392429, progress insts committed: 2863168, IPC: 00.28603
503333333283: Event_86: system.cpu progress event, total committed:412255773, progress insts committed: 2863344, IPC: 0.286048
506666666616: Event_86: system.cpu progress event, total committed:415119117, progress insts committed: 2863344, IPC: 0.286048
509999999949: Event_86: system.cpu progress event, total committed:417982461, progress insts committed: 2863344, IPC: 0.286048
513333333282: Event_86: system.cpu progress event, total committed:420845805, progress insts committed: 2863344, IPC: 0.286048
516666666615: Event_86: system.cpu progress event, total committed:423709149, progress insts committed: 2863344, IPC: 0.286048
519999999948: Event_86: system.cpu progress event, total committed:426572493, progress insts committed: 2863344, IPC: 0.286048
523333333281: Event_86: system.cpu progress event, total committed:429435661, progress insts committed: 2863168, IPC: 00.28603
526666666614: Event_86: system.cpu progress event, total committed:432298978, progress insts committed: 2863317, IPC: 0.286045
529999999947: Event_86: system.cpu progress event, total committed:435162331, progress insts committed: 2863353, IPC: 0.286049
533333333280: Event_86: system.cpu progress event, total committed:438025690, progress insts committed: 2863359, IPC: 00.28605
536666666613: Event_86: system.cpu progress event, total committed:440889037, progress insts committed: 2863347, IPC: 0.286048
539999999946: Event_86: system.cpu progress event, total committed:443752381, progress insts committed: 2863344, IPC: 0.286048
543333333279: Event_86: system.cpu progress event, total committed:446615725, progress insts committed: 2863344, IPC: 0.286048
546666666612: Event_86: system.cpu progress event, total committed:449479069, progress insts committed: 2863344, IPC: 0.286048
549999999945: Event_86: system.cpu progress event, total committed:452342147, progress insts committed: 2863078, IPC: 0.286021
553333333278: Event_86: system.cpu progress event, total committed:455205501, progress insts committed: 2863354, IPC: 0.286049
556666666611: Event_86: system.cpu progress event, total committed:458068860, progress insts committed: 2863359, IPC: 00.28605
559999999944: Event_86: system.cpu progress event, total committed:460932220, progress insts committed: 2863360, IPC: 00.28605
563333333277: Event_86: system.cpu progress event, total committed:463795573, progress insts committed: 2863353, IPC: 0.286049
566666666610: Event_86: system.cpu progress event, total committed:466658932, progress insts committed: 2863359, IPC: 00.28605
569999999943: Event_86: system.cpu progress event, total committed:469522290, progress insts committed: 2863358, IPC: 0.286049
573333333276: Event_86: system.cpu progress event, total committed:472385645, progress insts committed: 2863355, IPC: 0.286049
576666666609: Event_86: system.cpu progress event, total committed:475248676, progress insts committed: 2863031, IPC: 0.286017
579999999942: Event_86: system.cpu progress event, total committed:478112029, progress insts committed: 2863353, IPC: 0.286049
583333333275: Event_86: system.cpu progress event, total committed:480975389, progress insts committed: 2863360, IPC: 00.28605
586666666608: Event_86: system.cpu progress event, total committed:483838743, progress insts committed: 2863354, IPC: 0.286049
589999999941: Event_86: system.cpu progress event, total committed:486702102, progress insts committed: 2863359, IPC: 00.28605
593333333274: Event_86: system.cpu progress event, total committed:489565462, progress insts committed: 2863360, IPC: 00.28605
596666666607: Event_86: system.cpu progress event, total committed:492428815, progress insts committed: 2863353, IPC: 0.286049
599999999940: Event_86: system.cpu progress event, total committed:495292174, progress insts committed: 2863359, IPC: 00.28605
603333333273: Event_86: system.cpu progress event, total committed:498155213, progress insts committed: 2863039, IPC: 0.286018
606666666606: Event_86: system.cpu progress event, total committed:501018557, progress insts committed: 2863344, IPC: 0.286048
609999999939: Event_86: system.cpu progress event, total committed:503881918, progress insts committed: 2863361, IPC: 00.28605
613333333272: Event_86: system.cpu progress event, total committed:506745271, progress insts committed: 2863353, IPC: 0.286049
616666666605: Event_86: system.cpu progress event, total committed:509608631, progress insts committed: 2863360, IPC: 00.28605
619999999938: Event_86: system.cpu progress event, total committed:512471985, progress insts committed: 2863354, IPC: 0.286049
623333333271: Event_86: system.cpu progress event, total committed:515335344, progress insts committed: 2863359, IPC: 00.28605
626666666604: Event_86: system.cpu progress event, total committed:518198704, progress insts committed: 2863360, IPC: 00.28605
629999999937: Event_86: system.cpu progress event, total committed:521061789, progress insts committed: 2863085, IPC: 0.286022
633333333270: Event_86: system.cpu progress event, total committed:523925133, progress insts committed: 2863344, IPC: 0.286048
636666666603: Event_86: system.cpu progress event, total committed:526788477, progress insts committed: 2863344, IPC: 0.286048
639999999936: Event_86: system.cpu progress event, total committed:529651821, progress insts committed: 2863344, IPC: 0.286048
643333333269: Event_86: system.cpu progress event, total committed:532515165, progress insts committed: 2863344, IPC: 0.286048
646666666602: Event_86: system.cpu progress event, total committed:535378513, progress insts committed: 2863348, IPC: 0.286048
649999999935: Event_86: system.cpu progress event, total committed:538241873, progress insts committed: 2863360, IPC: 00.28605
653333333268: Event_86: system.cpu progress event, total committed:541105197, progress insts committed: 2863324, IPC: 0.286046
656666666601: Event_86: system.cpu progress event, total committed:543968365, progress insts committed: 2863168, IPC: 00.28603
659999999934: Event_86: system.cpu progress event, total committed:546831709, progress insts committed: 2863344, IPC: 0.286048
663333333267: Event_86: system.cpu progress event, total committed:549695053, progress insts committed: 2863344, IPC: 0.286048
666666666600: Event_86: system.cpu progress event, total committed:552558397, progress insts committed: 2863344, IPC: 0.286048
Round 10 sbox outputs: 98 f8 56 fc c2 00 19 e0 42 2b 8e e3 f9 1b 91 be 
669999999933: Event_86: system.cpu progress event, total committed:555416008, progress insts committed: 2857611, IPC: 0.285475
673333333266: Event_86: system.cpu progress event, total committed:558313614, progress insts committed: 2897606, IPC: 0.289471
676666666599: Event_86: system.cpu progress event, total committed:561209000, progress insts committed: 2895386, IPC: 0.289249
679999999932: Event_86: system.cpu progress event, total committed:564102264, progress insts committed: 2893264, IPC: 0.289037
683333333265: Event_86: system.cpu progress event, total committed:566999360, progress insts committed: 2897096, IPC: 00.28942
686666666598: Event_86: system.cpu progress event, total committed:569894751, progress insts committed: 2895391, IPC: 00.28925
689999999931: Event_86: system.cpu progress event, total committed:572789261, progress insts committed: 2894510, IPC: 0.289162
693333333264: Event_86: system.cpu progress event, total committed:575686936, progress insts committed: 2897675, IPC: 0.289478
696666666597: Event_86: system.cpu progress event, total committed:578584072, progress insts committed: 2897136, IPC: 0.289424
699999999930: Event_86: system.cpu progress event, total committed:581481220, progress insts committed: 2897148, IPC: 0.289425
703333333263: Event_86: system.cpu progress event, total committed:584379073, progress insts committed: 2897853, IPC: 0.289496
706666666596: Event_86: system.cpu progress event, total committed:587274850, progress insts committed: 2895777, IPC: 0.289288
709999999929: Event_86: system.cpu progress event, total committed:590170593, progress insts committed: 2895743, IPC: 0.289285
713333333262: Event_86: system.cpu progress event, total committed:593067464, progress insts committed: 2896871, IPC: 0.289397
716666666595: Event_86: system.cpu progress event, total committed:595964362, progress insts committed: 2896898, IPC: 000.2894
719999999928: Event_86: system.cpu progress event, total committed:598861865, progress insts committed: 2897503, IPC: 0.289461
723333333261: Event_86: system.cpu progress event, total committed:601758344, progress insts committed: 2896479, IPC: 0.289358
726666666594: Event_86: system.cpu progress event, total committed:604652643, progress insts committed: 2894299, IPC: 00.28914
729999999927: Event_86: system.cpu progress event, total committed:607547864, progress insts committed: 2895221, IPC: 0.289233
733333333260: Event_86: system.cpu progress event, total committed:610441681, progress insts committed: 2893817, IPC: 0.289092
736666666593: Event_86: system.cpu progress event, total committed:613340201, progress insts committed: 2898520, IPC: 0.289562
739999999926: Event_86: system.cpu progress event, total committed:616237036, progress insts committed: 2896835, IPC: 0.289394
743333333259: Event_86: system.cpu progress event, total committed:619134011, progress insts committed: 2896975, IPC: 0.289408
746666666592: Event_86: system.cpu progress event, total committed:622029144, progress insts committed: 2895133, IPC: 0.289224
749999999925: Event_86: system.cpu progress event, total committed:624924854, progress insts committed: 2895710, IPC: 0.289281
753333333258: Event_86: system.cpu progress event, total committed:627817784, progress insts committed: 2892930, IPC: 0.289004
756666666591: Event_86: system.cpu progress event, total committed:630712595, progress insts committed: 2894811, IPC: 0.289192
759999999924: Event_86: system.cpu progress event, total committed:633609592, progress insts committed: 2896997, IPC: 00.28941
763333333257: Event_86: system.cpu progress event, total committed:636507432, progress insts committed: 2897840, IPC: 0.289494
766666666590: Event_86: system.cpu progress event, total committed:639402104, progress insts committed: 2894672, IPC: 0.289178
769999999923: Event_86: system.cpu progress event, total committed:642300316, progress insts committed: 2898212, IPC: 0.289531
773333333256: Event_86: system.cpu progress event, total committed:645197743, progress insts committed: 2897427, IPC: 0.289453
776666666589: Event_86: system.cpu progress event, total committed:648092988, progress insts committed: 2895245, IPC: 0.289235
779999999922: Event_86: system.cpu progress event, total committed:650991061, progress insts committed: 2898073, IPC: 0.289517
783333333255: Event_86: system.cpu progress event, total committed:653889720, progress insts committed: 2898659, IPC: 0.289576
786666666588: Event_86: system.cpu progress event, total committed:656784392, progress insts committed: 2894672, IPC: 0.289178
789999999921: Event_86: system.cpu progress event, total committed:659682104, progress insts committed: 2897712, IPC: 0.289481
793333333254: Event_86: system.cpu progress event, total committed:662578840, progress insts committed: 2896736, IPC: 0.289384
796666666587: Event_86: system.cpu progress event, total committed:665476856, progress insts committed: 2898016, IPC: 0.289512
799999999920: Event_86: system.cpu progress event, total committed:668373816, progress insts committed: 2896960, IPC: 0.289406
803333333253: Event_86: system.cpu progress event, total committed:671271304, progress insts committed: 2897488, IPC: 0.289459
806666666586: Event_86: system.cpu progress event, total committed:674170841, progress insts committed: 2899537, IPC: 0.289664
809999999919: Event_86: system.cpu progress event, total committed:677067512, progress insts committed: 2896671, IPC: 0.289377
813333333252: Event_86: system.cpu progress event, total committed:679966408, progress insts committed: 2898896, IPC: 000.2896
816666666585: Event_86: system.cpu progress event, total committed:682863016, progress insts committed: 2896608, IPC: 0.289371
819999999918: Event_86: system.cpu progress event, total committed:685757688, progress insts committed: 2894672, IPC: 0.289178
823333333251: Event_86: system.cpu progress event, total committed:688654850, progress insts committed: 2897162, IPC: 0.289426
826666666584: Event_86: system.cpu progress event, total committed:691550552, progress insts committed: 2895702, IPC: 0.289281
829999999917: Event_86: system.cpu progress event, total committed:694446632, progress insts committed: 2896080, IPC: 0.289318
833333333250: Event_86: system.cpu progress event, total committed:697342008, progress insts committed: 2895376, IPC: 0.289248
836666666583: Event_86: system.cpu progress event, total committed:700240376, progress insts committed: 2898368, IPC: 0.289547
839999999916: Event_86: system.cpu progress event, total committed:703134825, progress insts committed: 2894449, IPC: 0.289155
843333333249: Event_86: system.cpu progress event, total committed:706033345, progress insts committed: 2898520, IPC: 0.289562
846666666582: Event_86: system.cpu progress event, total committed:708932995, progress insts committed: 2899650, IPC: 0.289675
849999999915: Event_86: system.cpu progress event, total committed:711832217, progress insts committed: 2899222, IPC: 0.289632
853333333248: Event_86: system.cpu progress event, total committed:714732040, progress insts committed: 2899823, IPC: 0.289692
856666666581: Event_86: system.cpu progress event, total committed:717630235, progress insts committed: 2898195, IPC: 00.28953
859999999914: Event_86: system.cpu progress event, total committed:720527184, progress insts committed: 2896949, IPC: 0.289405
863333333247: Event_86: system.cpu progress event, total committed:723422459, progress insts committed: 2895275, IPC: 0.289238
866666666580: Event_86: system.cpu progress event, total committed:726322251, progress insts committed: 2899792, IPC: 0.289689
869999999913: Event_86: system.cpu progress event, total committed:729219924, progress insts committed: 2897673, IPC: 0.289478
873333333246: Event_86: system.cpu progress event, total committed:732119187, progress insts committed: 2899263, IPC: 0.289636
876666666579: Event_86: system.cpu progress event, total committed:735014929, progress insts committed: 2895742, IPC: 0.289285
879999999912: Event_86: system.cpu progress event, total committed:737914936, progress insts committed: 2900007, IPC: 0.289711
Attacker access time(2f): 637752178,  for ciphertext: 46 94 fd e4 d8 05 fa fa a5 b1 ba 0d 72 79 43 05  and round 10 key: de 94 73 5a 1a 2e 6b 06 e7 aa ec ed 8b 81 5a e6 
Exiting @ tick 881656643817 because exiting with last active thread context
