
---------- Begin Simulation Statistics ----------
sim_seconds                                  3.052733                       # Number of seconds simulated
sim_ticks                                3052732648500                       # Number of ticks simulated
final_tick                               3052732648500                       # Number of ticks from beginning of simulation (restored from checkpoints and never reset)
sim_freq                                 1000000000000                       # Frequency of simulated ticks
host_inst_rate                                 302195                       # Simulator instruction rate (inst/s)
host_op_rate                                   412368                       # Simulator op (including micro ops) rate (op/s)
host_tick_rate                              897579210                       # Simulator tick rate (ticks/s)
host_mem_usage                                8730036                       # Number of bytes of host memory used
host_seconds                                  3401.07                       # Real time elapsed on the host
sim_insts                                  1027788477                       # Number of instructions simulated
sim_ops                                    1402492116                       # Number of ops (including micro ops) simulated
system.voltage_domain.voltage                       1                       # Voltage in Volts
system.clk_domain.clock                          1000                       # Clock period in ticks
system.mem_ctrls.pwrStateResidencyTicks::UNDEFINED 3052732648500                       # Cumulative time (in ticks) in various power states
system.mem_ctrls.bytes_read::.cpu0.inst         29248                       # Number of bytes read from this memory
system.mem_ctrls.bytes_read::.cpu0.data      22239040                       # Number of bytes read from this memory
system.mem_ctrls.bytes_read::.cpu1.inst        580608                       # Number of bytes read from this memory
system.mem_ctrls.bytes_read::.cpu1.data      78067712                       # Number of bytes read from this memory
system.mem_ctrls.bytes_read::total          100916608                       # Number of bytes read from this memory
system.mem_ctrls.bytes_inst_read::.cpu0.inst        29248                       # Number of instructions bytes read from this memory
system.mem_ctrls.bytes_inst_read::.cpu1.inst       580608                       # Number of instructions bytes read from this memory
system.mem_ctrls.bytes_inst_read::total        609856                       # Number of instructions bytes read from this memory
system.mem_ctrls.bytes_written::.writebacks     64428608                       # Number of bytes written to this memory
system.mem_ctrls.bytes_written::total        64428608                       # Number of bytes written to this memory
system.mem_ctrls.num_reads::.cpu0.inst            457                       # Number of read requests responded to by this memory
system.mem_ctrls.num_reads::.cpu0.data         347485                       # Number of read requests responded to by this memory
system.mem_ctrls.num_reads::.cpu1.inst           9072                       # Number of read requests responded to by this memory
system.mem_ctrls.num_reads::.cpu1.data        1219808                       # Number of read requests responded to by this memory
system.mem_ctrls.num_reads::total             1576822                       # Number of read requests responded to by this memory
system.mem_ctrls.num_writes::.writebacks      1006697                       # Number of write requests responded to by this memory
system.mem_ctrls.num_writes::total            1006697                       # Number of write requests responded to by this memory
system.mem_ctrls.bw_read::.cpu0.inst             9581                       # Total read bandwidth from this memory (bytes/s)
system.mem_ctrls.bw_read::.cpu0.data          7284962                       # Total read bandwidth from this memory (bytes/s)
system.mem_ctrls.bw_read::.cpu1.inst           190193                       # Total read bandwidth from this memory (bytes/s)
system.mem_ctrls.bw_read::.cpu1.data         25573059                       # Total read bandwidth from this memory (bytes/s)
system.mem_ctrls.bw_read::total              33057794                       # Total read bandwidth from this memory (bytes/s)
system.mem_ctrls.bw_inst_read::.cpu0.inst         9581                       # Instruction read bandwidth from this memory (bytes/s)
system.mem_ctrls.bw_inst_read::.cpu1.inst       190193                       # Instruction read bandwidth from this memory (bytes/s)
system.mem_ctrls.bw_inst_read::total           199774                       # Instruction read bandwidth from this memory (bytes/s)
system.mem_ctrls.bw_write::.writebacks       21105225                       # Write bandwidth from this memory (bytes/s)
system.mem_ctrls.bw_write::total             21105225                       # Write bandwidth from this memory (bytes/s)
system.mem_ctrls.bw_total::.writebacks       21105225                       # Total bandwidth to/from this memory (bytes/s)
system.mem_ctrls.bw_total::.cpu0.inst            9581                       # Total bandwidth to/from this memory (bytes/s)
system.mem_ctrls.bw_total::.cpu0.data         7284962                       # Total bandwidth to/from this memory (bytes/s)
system.mem_ctrls.bw_total::.cpu1.inst          190193                       # Total bandwidth to/from this memory (bytes/s)
system.mem_ctrls.bw_total::.cpu1.data        25573059                       # Total bandwidth to/from this memory (bytes/s)
system.mem_ctrls.bw_total::total             54163019                       # Total bandwidth to/from this memory (bytes/s)
system.mem_ctrls.avgPriority_.writebacks::samples   1006692.00                       # Average QoS priority value for accepted requests
system.mem_ctrls.avgPriority_.cpu0.inst::samples       457.00                       # Average QoS priority value for accepted requests
system.mem_ctrls.avgPriority_.cpu0.data::samples    347485.00                       # Average QoS priority value for accepted requests
system.mem_ctrls.avgPriority_.cpu1.inst::samples      9072.00                       # Average QoS priority value for accepted requests
system.mem_ctrls.avgPriority_.cpu1.data::samples   1218832.00                       # Average QoS priority value for accepted requests
system.mem_ctrls.priorityMinLatency      0.000000017492                       # per QoS priority minimum request to response latency (s)
system.mem_ctrls.priorityMaxLatency      0.095481551652                       # per QoS priority maximum request to response latency (s)
system.mem_ctrls.numReadWriteTurnArounds        59353                       # Number of turnarounds from READ to WRITE
system.mem_ctrls.numWriteReadTurnArounds        59353                       # Number of turnarounds from WRITE to READ
system.mem_ctrls.numStayReadState             4405812                       # Number of times bus staying in READ state
system.mem_ctrls.numStayWriteState             961603                       # Number of times bus staying in WRITE state
system.mem_ctrls.readReqs                     1576822                       # Number of read requests accepted
system.mem_ctrls.writeReqs                    1006697                       # Number of write requests accepted
system.mem_ctrls.readBursts                   1576822                       # Number of DRAM read bursts, including those serviced by the write queue
system.mem_ctrls.writeBursts                  1006697                       # Number of DRAM write bursts, including those merged in the write queue
system.mem_ctrls.bytesReadDRAM              100854144                       # Total number of bytes read from DRAM
system.mem_ctrls.bytesReadWrQ                   62464                       # Total number of bytes read from write queue
system.mem_ctrls.bytesWritten                64424832                       # Total number of bytes written to DRAM
system.mem_ctrls.bytesReadSys               100916608                       # Total read bytes from the system interface side
system.mem_ctrls.bytesWrittenSys             64428608                       # Total written bytes from the system interface side
system.mem_ctrls.servicedByWrQ                    976                       # Number of DRAM read bursts serviced by the write queue
system.mem_ctrls.mergedWrBursts                     5                       # Number of DRAM write bursts merged with an existing one
system.mem_ctrls.neitherReadNorWriteReqs            0                       # Number of requests that are neither read nor write
system.mem_ctrls.perBankRdBursts::0             49029                       # Per bank write bursts
system.mem_ctrls.perBankRdBursts::1             48979                       # Per bank write bursts
system.mem_ctrls.perBankRdBursts::2             49344                       # Per bank write bursts
system.mem_ctrls.perBankRdBursts::3             49009                       # Per bank write bursts
system.mem_ctrls.perBankRdBursts::4             49175                       # Per bank write bursts
system.mem_ctrls.perBankRdBursts::5             49173                       # Per bank write bursts
system.mem_ctrls.perBankRdBursts::6             48924                       # Per bank write bursts
system.mem_ctrls.perBankRdBursts::7             48911                       # Per bank write bursts
system.mem_ctrls.perBankRdBursts::8             48752                       # Per bank write bursts
system.mem_ctrls.perBankRdBursts::9             48973                       # Per bank write bursts
system.mem_ctrls.perBankRdBursts::10            49050                       # Per bank write bursts
system.mem_ctrls.perBankRdBursts::11            49423                       # Per bank write bursts
system.mem_ctrls.perBankRdBursts::12            49253                       # Per bank write bursts
system.mem_ctrls.perBankRdBursts::13            49479                       # Per bank write bursts
system.mem_ctrls.perBankRdBursts::14            49529                       # Per bank write bursts
system.mem_ctrls.perBankRdBursts::15            49477                       # Per bank write bursts
system.mem_ctrls.perBankRdBursts::16            49557                       # Per bank write bursts
system.mem_ctrls.perBankRdBursts::17            49695                       # Per bank write bursts
system.mem_ctrls.perBankRdBursts::18            49784                       # Per bank write bursts
system.mem_ctrls.perBankRdBursts::19            49692                       # Per bank write bursts
system.mem_ctrls.perBankRdBursts::20            49445                       # Per bank write bursts
system.mem_ctrls.perBankRdBursts::21            49342                       # Per bank write bursts
system.mem_ctrls.perBankRdBursts::22            49431                       # Per bank write bursts
system.mem_ctrls.perBankRdBursts::23            49426                       # Per bank write bursts
system.mem_ctrls.perBankRdBursts::24            49422                       # Per bank write bursts
system.mem_ctrls.perBankRdBursts::25            49290                       # Per bank write bursts
system.mem_ctrls.perBankRdBursts::26            49120                       # Per bank write bursts
system.mem_ctrls.perBankRdBursts::27            49112                       # Per bank write bursts
system.mem_ctrls.perBankRdBursts::28            49104                       # Per bank write bursts
system.mem_ctrls.perBankRdBursts::29            48981                       # Per bank write bursts
system.mem_ctrls.perBankRdBursts::30            49038                       # Per bank write bursts
system.mem_ctrls.perBankRdBursts::31            48927                       # Per bank write bursts
system.mem_ctrls.perBankWrBursts::0             31281                       # Per bank write bursts
system.mem_ctrls.perBankWrBursts::1             31233                       # Per bank write bursts
system.mem_ctrls.perBankWrBursts::2             31617                       # Per bank write bursts
system.mem_ctrls.perBankWrBursts::3             31361                       # Per bank write bursts
system.mem_ctrls.perBankWrBursts::4             31428                       # Per bank write bursts
system.mem_ctrls.perBankWrBursts::5             31564                       # Per bank write bursts
system.mem_ctrls.perBankWrBursts::6             31705                       # Per bank write bursts
system.mem_ctrls.perBankWrBursts::7             31573                       # Per bank write bursts
system.mem_ctrls.perBankWrBursts::8             31416                       # Per bank write bursts
system.mem_ctrls.perBankWrBursts::9             31479                       # Per bank write bursts
system.mem_ctrls.perBankWrBursts::10            31275                       # Per bank write bursts
system.mem_ctrls.perBankWrBursts::11            31427                       # Per bank write bursts
system.mem_ctrls.perBankWrBursts::12            31481                       # Per bank write bursts
system.mem_ctrls.perBankWrBursts::13            31542                       # Per bank write bursts
system.mem_ctrls.perBankWrBursts::14            31499                       # Per bank write bursts
system.mem_ctrls.perBankWrBursts::15            31499                       # Per bank write bursts
system.mem_ctrls.perBankWrBursts::16            31537                       # Per bank write bursts
system.mem_ctrls.perBankWrBursts::17            31598                       # Per bank write bursts
system.mem_ctrls.perBankWrBursts::18            31560                       # Per bank write bursts
system.mem_ctrls.perBankWrBursts::19            31469                       # Per bank write bursts
system.mem_ctrls.perBankWrBursts::20            31399                       # Per bank write bursts
system.mem_ctrls.perBankWrBursts::21            31423                       # Per bank write bursts
system.mem_ctrls.perBankWrBursts::22            31452                       # Per bank write bursts
system.mem_ctrls.perBankWrBursts::23            31480                       # Per bank write bursts
system.mem_ctrls.perBankWrBursts::24            31552                       # Per bank write bursts
system.mem_ctrls.perBankWrBursts::25            31371                       # Per bank write bursts
system.mem_ctrls.perBankWrBursts::26            31379                       # Per bank write bursts
system.mem_ctrls.perBankWrBursts::27            31402                       # Per bank write bursts
system.mem_ctrls.perBankWrBursts::28            31528                       # Per bank write bursts
system.mem_ctrls.perBankWrBursts::29            31422                       # Per bank write bursts
system.mem_ctrls.perBankWrBursts::30            31360                       # Per bank write bursts
system.mem_ctrls.perBankWrBursts::31            31326                       # Per bank write bursts
system.mem_ctrls.numRdRetry                         0                       # Number of times read queue was full causing retry
system.mem_ctrls.numWrRetry                         0                       # Number of times write queue was full causing retry
system.mem_ctrls.totGap                  3052695738500                       # Total gap between requests
system.mem_ctrls.readPktSize::0                     0                       # Read request sizes (log2)
system.mem_ctrls.readPktSize::1                     0                       # Read request sizes (log2)
system.mem_ctrls.readPktSize::2                     0                       # Read request sizes (log2)
system.mem_ctrls.readPktSize::3                     0                       # Read request sizes (log2)
system.mem_ctrls.readPktSize::4                     0                       # Read request sizes (log2)
system.mem_ctrls.readPktSize::5                     0                       # Read request sizes (log2)
system.mem_ctrls.readPktSize::6               1576822                       # Read request sizes (log2)
system.mem_ctrls.writePktSize::0                    0                       # Write request sizes (log2)
system.mem_ctrls.writePktSize::1                    0                       # Write request sizes (log2)
system.mem_ctrls.writePktSize::2                    0                       # Write request sizes (log2)
system.mem_ctrls.writePktSize::3                    0                       # Write request sizes (log2)
system.mem_ctrls.writePktSize::4                    0                       # Write request sizes (log2)
system.mem_ctrls.writePktSize::5                    0                       # Write request sizes (log2)
system.mem_ctrls.writePktSize::6              1006697                       # Write request sizes (log2)
system.mem_ctrls.rdQLenPdf::0                 1567119                       # What read queue length does an incoming req see
system.mem_ctrls.rdQLenPdf::1                    8723                       # What read queue length does an incoming req see
system.mem_ctrls.rdQLenPdf::2                       4                       # What read queue length does an incoming req see
system.mem_ctrls.rdQLenPdf::3                       0                       # What read queue length does an incoming req see
system.mem_ctrls.rdQLenPdf::4                       0                       # What read queue length does an incoming req see
system.mem_ctrls.rdQLenPdf::5                       0                       # What read queue length does an incoming req see
system.mem_ctrls.rdQLenPdf::6                       0                       # What read queue length does an incoming req see
system.mem_ctrls.rdQLenPdf::7                       0                       # What read queue length does an incoming req see
system.mem_ctrls.rdQLenPdf::8                       0                       # What read queue length does an incoming req see
system.mem_ctrls.rdQLenPdf::9                       0                       # What read queue length does an incoming req see
system.mem_ctrls.rdQLenPdf::10                      0                       # What read queue length does an incoming req see
system.mem_ctrls.rdQLenPdf::11                      0                       # What read queue length does an incoming req see
system.mem_ctrls.rdQLenPdf::12                      0                       # What read queue length does an incoming req see
system.mem_ctrls.rdQLenPdf::13                      0                       # What read queue length does an incoming req see
system.mem_ctrls.rdQLenPdf::14                      0                       # What read queue length does an incoming req see
system.mem_ctrls.rdQLenPdf::15                      0                       # What read queue length does an incoming req see
system.mem_ctrls.rdQLenPdf::16                      0                       # What read queue length does an incoming req see
system.mem_ctrls.rdQLenPdf::17                      0                       # What read queue length does an incoming req see
system.mem_ctrls.rdQLenPdf::18                      0                       # What read queue length does an incoming req see
system.mem_ctrls.rdQLenPdf::19                      0                       # What read queue length does an incoming req see
system.mem_ctrls.rdQLenPdf::20                      0                       # What read queue length does an incoming req see
system.mem_ctrls.rdQLenPdf::21                      0                       # What read queue length does an incoming req see
system.mem_ctrls.rdQLenPdf::22                      0                       # What read queue length does an incoming req see
system.mem_ctrls.rdQLenPdf::23                      0                       # What read queue length does an incoming req see
system.mem_ctrls.rdQLenPdf::24                      0                       # What read queue length does an incoming req see
system.mem_ctrls.rdQLenPdf::25                      0                       # What read queue length does an incoming req see
system.mem_ctrls.rdQLenPdf::26                      0                       # What read queue length does an incoming req see
system.mem_ctrls.rdQLenPdf::27                      0                       # What read queue length does an incoming req see
system.mem_ctrls.rdQLenPdf::28                      0                       # What read queue length does an incoming req see
system.mem_ctrls.rdQLenPdf::29                      0                       # What read queue length does an incoming req see
system.mem_ctrls.rdQLenPdf::30                      0                       # What read queue length does an incoming req see
system.mem_ctrls.rdQLenPdf::31                      0                       # What read queue length does an incoming req see
system.mem_ctrls.rdQLenPdf::32                      0                       # What read queue length does an incoming req see
system.mem_ctrls.rdQLenPdf::33                      0                       # What read queue length does an incoming req see
system.mem_ctrls.rdQLenPdf::34                      0                       # What read queue length does an incoming req see
system.mem_ctrls.rdQLenPdf::35                      0                       # What read queue length does an incoming req see
system.mem_ctrls.rdQLenPdf::36                      0                       # What read queue length does an incoming req see
system.mem_ctrls.rdQLenPdf::37                      0                       # What read queue length does an incoming req see
system.mem_ctrls.rdQLenPdf::38                      0                       # What read queue length does an incoming req see
system.mem_ctrls.rdQLenPdf::39                      0                       # What read queue length does an incoming req see
system.mem_ctrls.rdQLenPdf::40                      0                       # What read queue length does an incoming req see
system.mem_ctrls.rdQLenPdf::41                      0                       # What read queue length does an incoming req see
system.mem_ctrls.rdQLenPdf::42                      0                       # What read queue length does an incoming req see
system.mem_ctrls.rdQLenPdf::43                      0                       # What read queue length does an incoming req see
system.mem_ctrls.rdQLenPdf::44                      0                       # What read queue length does an incoming req see
system.mem_ctrls.rdQLenPdf::45                      0                       # What read queue length does an incoming req see
system.mem_ctrls.rdQLenPdf::46                      0                       # What read queue length does an incoming req see
system.mem_ctrls.rdQLenPdf::47                      0                       # What read queue length does an incoming req see
system.mem_ctrls.rdQLenPdf::48                      0                       # What read queue length does an incoming req see
system.mem_ctrls.rdQLenPdf::49                      0                       # What read queue length does an incoming req see
system.mem_ctrls.rdQLenPdf::50                      0                       # What read queue length does an incoming req see
system.mem_ctrls.rdQLenPdf::51                      0                       # What read queue length does an incoming req see
system.mem_ctrls.rdQLenPdf::52                      0                       # What read queue length does an incoming req see
system.mem_ctrls.rdQLenPdf::53                      0                       # What read queue length does an incoming req see
system.mem_ctrls.rdQLenPdf::54                      0                       # What read queue length does an incoming req see
system.mem_ctrls.rdQLenPdf::55                      0                       # What read queue length does an incoming req see
system.mem_ctrls.rdQLenPdf::56                      0                       # What read queue length does an incoming req see
system.mem_ctrls.rdQLenPdf::57                      0                       # What read queue length does an incoming req see
system.mem_ctrls.rdQLenPdf::58                      0                       # What read queue length does an incoming req see
system.mem_ctrls.rdQLenPdf::59                      0                       # What read queue length does an incoming req see
system.mem_ctrls.rdQLenPdf::60                      0                       # What read queue length does an incoming req see
system.mem_ctrls.rdQLenPdf::61                      0                       # What read queue length does an incoming req see
system.mem_ctrls.rdQLenPdf::62                      0                       # What read queue length does an incoming req see
system.mem_ctrls.rdQLenPdf::63                      0                       # What read queue length does an incoming req see
system.mem_ctrls.wrQLenPdf::0                       1                       # What write queue length does an incoming req see
system.mem_ctrls.wrQLenPdf::1                       1                       # What write queue length does an incoming req see
system.mem_ctrls.wrQLenPdf::2                       1                       # What write queue length does an incoming req see
system.mem_ctrls.wrQLenPdf::3                       1                       # What write queue length does an incoming req see
system.mem_ctrls.wrQLenPdf::4                       1                       # What write queue length does an incoming req see
system.mem_ctrls.wrQLenPdf::5                       1                       # What write queue length does an incoming req see
system.mem_ctrls.wrQLenPdf::6                       1                       # What write queue length does an incoming req see
system.mem_ctrls.wrQLenPdf::7                       1                       # What write queue length does an incoming req see
system.mem_ctrls.wrQLenPdf::8                       1                       # What write queue length does an incoming req see
system.mem_ctrls.wrQLenPdf::9                       1                       # What write queue length does an incoming req see
system.mem_ctrls.wrQLenPdf::10                      1                       # What write queue length does an incoming req see
system.mem_ctrls.wrQLenPdf::11                      1                       # What write queue length does an incoming req see
system.mem_ctrls.wrQLenPdf::12                      1                       # What write queue length does an incoming req see
system.mem_ctrls.wrQLenPdf::13                      1                       # What write queue length does an incoming req see
system.mem_ctrls.wrQLenPdf::14                      1                       # What write queue length does an incoming req see
system.mem_ctrls.wrQLenPdf::15                      1                       # What write queue length does an incoming req see
system.mem_ctrls.wrQLenPdf::16                      1                       # What write queue length does an incoming req see
system.mem_ctrls.wrQLenPdf::17                      1                       # What write queue length does an incoming req see
system.mem_ctrls.wrQLenPdf::18                      1                       # What write queue length does an incoming req see
system.mem_ctrls.wrQLenPdf::19                      1                       # What write queue length does an incoming req see
system.mem_ctrls.wrQLenPdf::20                      1                       # What write queue length does an incoming req see
system.mem_ctrls.wrQLenPdf::21                      1                       # What write queue length does an incoming req see
system.mem_ctrls.wrQLenPdf::22                      1                       # What write queue length does an incoming req see
system.mem_ctrls.wrQLenPdf::23                      1                       # What write queue length does an incoming req see
system.mem_ctrls.wrQLenPdf::24                      1                       # What write queue length does an incoming req see
system.mem_ctrls.wrQLenPdf::25                      1                       # What write queue length does an incoming req see
system.mem_ctrls.wrQLenPdf::26                      1                       # What write queue length does an incoming req see
system.mem_ctrls.wrQLenPdf::27                      1                       # What write queue length does an incoming req see
system.mem_ctrls.wrQLenPdf::28                      1                       # What write queue length does an incoming req see
system.mem_ctrls.wrQLenPdf::29                      1                       # What write queue length does an incoming req see
system.mem_ctrls.wrQLenPdf::30                      1                       # What write queue length does an incoming req see
system.mem_ctrls.wrQLenPdf::31                      1                       # What write queue length does an incoming req see
system.mem_ctrls.wrQLenPdf::32                      1                       # What write queue length does an incoming req see
system.mem_ctrls.wrQLenPdf::33                      1                       # What write queue length does an incoming req see
system.mem_ctrls.wrQLenPdf::34                      1                       # What write queue length does an incoming req see
system.mem_ctrls.wrQLenPdf::35                      1                       # What write queue length does an incoming req see
system.mem_ctrls.wrQLenPdf::36                      1                       # What write queue length does an incoming req see
system.mem_ctrls.wrQLenPdf::37                      1                       # What write queue length does an incoming req see
system.mem_ctrls.wrQLenPdf::38                      1                       # What write queue length does an incoming req see
system.mem_ctrls.wrQLenPdf::39                      1                       # What write queue length does an incoming req see
system.mem_ctrls.wrQLenPdf::40                      1                       # What write queue length does an incoming req see
system.mem_ctrls.wrQLenPdf::41                      1                       # What write queue length does an incoming req see
system.mem_ctrls.wrQLenPdf::42                      1                       # What write queue length does an incoming req see
system.mem_ctrls.wrQLenPdf::43                      1                       # What write queue length does an incoming req see
system.mem_ctrls.wrQLenPdf::44                      1                       # What write queue length does an incoming req see
system.mem_ctrls.wrQLenPdf::45                      1                       # What write queue length does an incoming req see
system.mem_ctrls.wrQLenPdf::46                      1                       # What write queue length does an incoming req see
system.mem_ctrls.wrQLenPdf::47                  28247                       # What write queue length does an incoming req see
system.mem_ctrls.wrQLenPdf::48                  28732                       # What write queue length does an incoming req see
system.mem_ctrls.wrQLenPdf::49                  59351                       # What write queue length does an incoming req see
system.mem_ctrls.wrQLenPdf::50                  59354                       # What write queue length does an incoming req see
system.mem_ctrls.wrQLenPdf::51                  59356                       # What write queue length does an incoming req see
system.mem_ctrls.wrQLenPdf::52                  59354                       # What write queue length does an incoming req see
system.mem_ctrls.wrQLenPdf::53                  59354                       # What write queue length does an incoming req see
system.mem_ctrls.wrQLenPdf::54                  59353                       # What write queue length does an incoming req see
system.mem_ctrls.wrQLenPdf::55                  59353                       # What write queue length does an incoming req see
system.mem_ctrls.wrQLenPdf::56                  59354                       # What write queue length does an incoming req see
system.mem_ctrls.wrQLenPdf::57                  59354                       # What write queue length does an incoming req see
system.mem_ctrls.wrQLenPdf::58                  59354                       # What write queue length does an incoming req see
system.mem_ctrls.wrQLenPdf::59                  59360                       # What write queue length does an incoming req see
system.mem_ctrls.wrQLenPdf::60                  59356                       # What write queue length does an incoming req see
system.mem_ctrls.wrQLenPdf::61                  59354                       # What write queue length does an incoming req see
system.mem_ctrls.wrQLenPdf::62                  59353                       # What write queue length does an incoming req see
system.mem_ctrls.wrQLenPdf::63                  59353                       # What write queue length does an incoming req see
system.mem_ctrls.wrQLenPdf::64                  59353                       # What write queue length does an incoming req see
system.mem_ctrls.wrQLenPdf::65                      0                       # What write queue length does an incoming req see
system.mem_ctrls.wrQLenPdf::66                      0                       # What write queue length does an incoming req see
system.mem_ctrls.wrQLenPdf::67                      0                       # What write queue length does an incoming req see
system.mem_ctrls.wrQLenPdf::68                      0                       # What write queue length does an incoming req see
system.mem_ctrls.wrQLenPdf::69                      0                       # What write queue length does an incoming req see
system.mem_ctrls.wrQLenPdf::70                      0                       # What write queue length does an incoming req see
system.mem_ctrls.wrQLenPdf::71                      0                       # What write queue length does an incoming req see
system.mem_ctrls.wrQLenPdf::72                      0                       # What write queue length does an incoming req see
system.mem_ctrls.wrQLenPdf::73                      0                       # What write queue length does an incoming req see
system.mem_ctrls.wrQLenPdf::74                      0                       # What write queue length does an incoming req see
system.mem_ctrls.wrQLenPdf::75                      0                       # What write queue length does an incoming req see
system.mem_ctrls.wrQLenPdf::76                      0                       # What write queue length does an incoming req see
system.mem_ctrls.wrQLenPdf::77                      0                       # What write queue length does an incoming req see
system.mem_ctrls.wrQLenPdf::78                      0                       # What write queue length does an incoming req see
system.mem_ctrls.wrQLenPdf::79                      0                       # What write queue length does an incoming req see
system.mem_ctrls.wrQLenPdf::80                      0                       # What write queue length does an incoming req see
system.mem_ctrls.wrQLenPdf::81                      0                       # What write queue length does an incoming req see
system.mem_ctrls.wrQLenPdf::82                      0                       # What write queue length does an incoming req see
system.mem_ctrls.wrQLenPdf::83                      0                       # What write queue length does an incoming req see
system.mem_ctrls.wrQLenPdf::84                      0                       # What write queue length does an incoming req see
system.mem_ctrls.wrQLenPdf::85                      0                       # What write queue length does an incoming req see
system.mem_ctrls.wrQLenPdf::86                      0                       # What write queue length does an incoming req see
system.mem_ctrls.wrQLenPdf::87                      0                       # What write queue length does an incoming req see
system.mem_ctrls.wrQLenPdf::88                      0                       # What write queue length does an incoming req see
system.mem_ctrls.wrQLenPdf::89                      0                       # What write queue length does an incoming req see
system.mem_ctrls.wrQLenPdf::90                      0                       # What write queue length does an incoming req see
system.mem_ctrls.wrQLenPdf::91                      0                       # What write queue length does an incoming req see
system.mem_ctrls.wrQLenPdf::92                      0                       # What write queue length does an incoming req see
system.mem_ctrls.wrQLenPdf::93                      0                       # What write queue length does an incoming req see
system.mem_ctrls.wrQLenPdf::94                      0                       # What write queue length does an incoming req see
system.mem_ctrls.wrQLenPdf::95                      0                       # What write queue length does an incoming req see
system.mem_ctrls.wrQLenPdf::96                      0                       # What write queue length does an incoming req see
system.mem_ctrls.wrQLenPdf::97                      0                       # What write queue length does an incoming req see
system.mem_ctrls.wrQLenPdf::98                      0                       # What write queue length does an incoming req see
system.mem_ctrls.wrQLenPdf::99                      0                       # What write queue length does an incoming req see
system.mem_ctrls.wrQLenPdf::100                     0                       # What write queue length does an incoming req see
system.mem_ctrls.wrQLenPdf::101                     0                       # What write queue length does an incoming req see
system.mem_ctrls.wrQLenPdf::102                     0                       # What write queue length does an incoming req see
system.mem_ctrls.wrQLenPdf::103                     0                       # What write queue length does an incoming req see
system.mem_ctrls.wrQLenPdf::104                     0                       # What write queue length does an incoming req see
system.mem_ctrls.wrQLenPdf::105                     0                       # What write queue length does an incoming req see
system.mem_ctrls.wrQLenPdf::106                     0                       # What write queue length does an incoming req see
system.mem_ctrls.wrQLenPdf::107                     0                       # What write queue length does an incoming req see
system.mem_ctrls.wrQLenPdf::108                     0                       # What write queue length does an incoming req see
system.mem_ctrls.wrQLenPdf::109                     0                       # What write queue length does an incoming req see
system.mem_ctrls.wrQLenPdf::110                     0                       # What write queue length does an incoming req see
system.mem_ctrls.wrQLenPdf::111                     0                       # What write queue length does an incoming req see
system.mem_ctrls.wrQLenPdf::112                     0                       # What write queue length does an incoming req see
system.mem_ctrls.wrQLenPdf::113                     0                       # What write queue length does an incoming req see
system.mem_ctrls.wrQLenPdf::114                     0                       # What write queue length does an incoming req see
system.mem_ctrls.wrQLenPdf::115                     0                       # What write queue length does an incoming req see
system.mem_ctrls.wrQLenPdf::116                     0                       # What write queue length does an incoming req see
system.mem_ctrls.wrQLenPdf::117                     0                       # What write queue length does an incoming req see
system.mem_ctrls.wrQLenPdf::118                     0                       # What write queue length does an incoming req see
system.mem_ctrls.wrQLenPdf::119                     0                       # What write queue length does an incoming req see
system.mem_ctrls.wrQLenPdf::120                     0                       # What write queue length does an incoming req see
system.mem_ctrls.wrQLenPdf::121                     0                       # What write queue length does an incoming req see
system.mem_ctrls.wrQLenPdf::122                     0                       # What write queue length does an incoming req see
system.mem_ctrls.wrQLenPdf::123                     0                       # What write queue length does an incoming req see
system.mem_ctrls.wrQLenPdf::124                     0                       # What write queue length does an incoming req see
system.mem_ctrls.wrQLenPdf::125                     0                       # What write queue length does an incoming req see
system.mem_ctrls.wrQLenPdf::126                     0                       # What write queue length does an incoming req see
system.mem_ctrls.wrQLenPdf::127                     0                       # What write queue length does an incoming req see
system.mem_ctrls.bytesPerActivate::samples      2033366                       # Bytes accessed per row activation
system.mem_ctrls.bytesPerActivate::mean     81.283436                       # Bytes accessed per row activation
system.mem_ctrls.bytesPerActivate::gmean    70.674696                       # Bytes accessed per row activation
system.mem_ctrls.bytesPerActivate::stdev   100.323378                       # Bytes accessed per row activation
system.mem_ctrls.bytesPerActivate::0-127      1832766     90.13%     90.13% # Bytes accessed per row activation
system.mem_ctrls.bytesPerActivate::128-255       174530      8.58%     98.72% # Bytes accessed per row activation
system.mem_ctrls.bytesPerActivate::256-383         2499      0.12%     98.84% # Bytes accessed per row activation
system.mem_ctrls.bytesPerActivate::384-511         1072      0.05%     98.89% # Bytes accessed per row activation
system.mem_ctrls.bytesPerActivate::512-639          689      0.03%     98.93% # Bytes accessed per row activation
system.mem_ctrls.bytesPerActivate::640-767          509      0.03%     98.95% # Bytes accessed per row activation
system.mem_ctrls.bytesPerActivate::768-895          488      0.02%     98.98% # Bytes accessed per row activation
system.mem_ctrls.bytesPerActivate::896-1023          552      0.03%     99.00% # Bytes accessed per row activation
system.mem_ctrls.bytesPerActivate::1024-1151        20261      1.00%    100.00% # Bytes accessed per row activation
system.mem_ctrls.bytesPerActivate::total      2033366                       # Bytes accessed per row activation
system.mem_ctrls.rdPerTurnAround::samples        59353                       # Reads before turning the bus around for writes
system.mem_ctrls.rdPerTurnAround::mean      26.550284                       # Reads before turning the bus around for writes
system.mem_ctrls.rdPerTurnAround::gmean     20.545747                       # Reads before turning the bus around for writes
system.mem_ctrls.rdPerTurnAround::stdev    398.610667                       # Reads before turning the bus around for writes
system.mem_ctrls.rdPerTurnAround::0-2047        59352    100.00%    100.00% # Reads before turning the bus around for writes
system.mem_ctrls.rdPerTurnAround::96256-98303            1      0.00%    100.00% # Reads before turning the bus around for writes
system.mem_ctrls.rdPerTurnAround::total         59353                       # Reads before turning the bus around for writes
system.mem_ctrls.wrPerTurnAround::samples        59353                       # Writes before turning the bus around for reads
system.mem_ctrls.wrPerTurnAround::mean      16.960187                       # Writes before turning the bus around for reads
system.mem_ctrls.wrPerTurnAround::gmean     16.931044                       # Writes before turning the bus around for reads
system.mem_ctrls.wrPerTurnAround::stdev      0.995398                       # Writes before turning the bus around for reads
system.mem_ctrls.wrPerTurnAround::16            30621     51.59%     51.59% # Writes before turning the bus around for reads
system.mem_ctrls.wrPerTurnAround::17              485      0.82%     52.41% # Writes before turning the bus around for reads
system.mem_ctrls.wrPerTurnAround::18            28236     47.57%     99.98% # Writes before turning the bus around for reads
system.mem_ctrls.wrPerTurnAround::19               11      0.02%    100.00% # Writes before turning the bus around for reads
system.mem_ctrls.wrPerTurnAround::total         59353                       # Writes before turning the bus around for reads
system.mem_ctrls.masterReadBytes::.cpu0.inst        29248                       # Per-master bytes read from memory
system.mem_ctrls.masterReadBytes::.cpu0.data     22239040                       # Per-master bytes read from memory
system.mem_ctrls.masterReadBytes::.cpu1.inst       580608                       # Per-master bytes read from memory
system.mem_ctrls.masterReadBytes::.cpu1.data     78005248                       # Per-master bytes read from memory
system.mem_ctrls.masterWriteBytes::.writebacks     64424832                       # Per-master bytes write to memory
system.mem_ctrls.masterReadRate::.cpu0.inst 9580.924164574773                       # Per-master bytes read from memory rate (Bytes/sec)
system.mem_ctrls.masterReadRate::.cpu0.data 7284961.560891170986                       # Per-master bytes read from memory rate (Bytes/sec)
system.mem_ctrls.masterReadRate::.cpu1.inst 190192.875319523737                       # Per-master bytes read from memory rate (Bytes/sec)
system.mem_ctrls.masterReadRate::.cpu1.data 25552597.289621446282                       # Per-master bytes read from memory rate (Bytes/sec)
system.mem_ctrls.masterWriteRate::.writebacks 21103987.613083634526                       # Per-master bytes write to memory rate (Bytes/sec)
system.mem_ctrls.masterReadAccesses::.cpu0.inst          457                       # Per-master read serviced memory accesses
system.mem_ctrls.masterReadAccesses::.cpu0.data       347485                       # Per-master read serviced memory accesses
system.mem_ctrls.masterReadAccesses::.cpu1.inst         9072                       # Per-master read serviced memory accesses
system.mem_ctrls.masterReadAccesses::.cpu1.data      1219808                       # Per-master read serviced memory accesses
system.mem_ctrls.masterWriteAccesses::.writebacks      1006697                       # Per-master write serviced memory accesses
system.mem_ctrls.masterReadTotalLat::.cpu0.inst     13901790                       # Per-master read total memory access latency
system.mem_ctrls.masterReadTotalLat::.cpu0.data  14112943367                       # Per-master read total memory access latency
system.mem_ctrls.masterReadTotalLat::.cpu1.inst    825480396                       # Per-master read total memory access latency
system.mem_ctrls.masterReadTotalLat::.cpu1.data 112560250365                       # Per-master read total memory access latency
system.mem_ctrls.masterWriteTotalLat::.writebacks 168215582179877                       # Per-master write total memory access latency
system.mem_ctrls.masterReadAvgLat::.cpu0.inst     30419.67                       # Per-master read average memory access latency
system.mem_ctrls.masterReadAvgLat::.cpu0.data     40614.54                       # Per-master read average memory access latency
system.mem_ctrls.masterReadAvgLat::.cpu1.inst     90992.11                       # Per-master read average memory access latency
system.mem_ctrls.masterReadAvgLat::.cpu1.data     92277.02                       # Per-master read average memory access latency
system.mem_ctrls.masterWriteAvgLat::.writebacks 167096536.67                       # Per-master write average memory access latency
system.mem_ctrls.totQLat                  99947877686                       # Total ticks spent queuing
system.mem_ctrls.totMemAccLat            127512575918                       # Total ticks spent from burst creation until serviced by the DRAM
system.mem_ctrls.totBusLat                 5250718872                       # Total ticks spent in databus transfers
system.mem_ctrls.avgQLat                     63424.90                       # Average queueing delay per DRAM burst
system.mem_ctrls.avgBusLat                    3332.00                       # Average bus latency per DRAM burst
system.mem_ctrls.avgMemAccLat                80916.90                       # Average memory access latency per DRAM burst
system.mem_ctrls.avgRdBW                        33.04                       # Average DRAM read bandwidth in MiByte/s
system.mem_ctrls.avgWrBW                        21.10                       # Average achieved write bandwidth in MiByte/s
system.mem_ctrls.avgRdBWSys                     33.06                       # Average system read bandwidth in MiByte/s
system.mem_ctrls.avgWrBWSys                     21.11                       # Average system write bandwidth in MiByte/s
system.mem_ctrls.peakBW                      19207.00                       # Theoretical peak bandwidth in MiByte/s
system.mem_ctrls.busUtil                         0.28                       # Data bus utilization in percentage
system.mem_ctrls.busUtilRead                     0.17                       # Data bus utilization in percentage for reads
system.mem_ctrls.busUtilWrite                    0.11                       # Data bus utilization in percentage for writes
system.mem_ctrls.avgRdQLen                       1.00                       # Average read queue length when enqueuing
system.mem_ctrls.avgWrQLen                      56.14                       # Average write queue length when enqueuing
system.mem_ctrls.readRowHits                   497478                       # Number of row buffer hits during reads
system.mem_ctrls.writeRowHits                   51640                       # Number of row buffer hits during writes
system.mem_ctrls.readRowHitRate                 31.57                       # Row buffer hit rate for reads
system.mem_ctrls.writeRowHitRate                 5.13                       # Row buffer hit rate for writes
system.mem_ctrls.avgGap                    1181603.75                       # Average gap between requests
system.mem_ctrls.pageHitRate                    21.26                       # Row buffer hit rate, read and write combined
system.mem_ctrls_0.actEnergy             1583678874.960518                       # Energy for activate commands per rank (pJ)
system.mem_ctrls_0.preEnergy             2795802321.564580                       # Energy for precharge commands per rank (pJ)
system.mem_ctrls_0.readEnergy            2157237879.552763                       # Energy for read commands per rank (pJ)
system.mem_ctrls_0.writeEnergy           1187501609.279366                       # Energy for write commands per rank (pJ)
system.mem_ctrls_0.refreshEnergy         98145039490.894928                       # Energy for refresh commands per rank (pJ)
system.mem_ctrls_0.actBackEnergy         73346313440.481567                       # Energy for active background per rank (pJ)
system.mem_ctrls_0.preBackEnergy         6401304725.478641                       # Energy for precharge background per rank (pJ)
system.mem_ctrls_0.actPowerDownEnergy    211241637604.804291                       # Energy for active power-down per rank (pJ)
system.mem_ctrls_0.prePowerDownEnergy    90396062905.520737                       # Energy for precharge power-down per rank (pJ)
system.mem_ctrls_0.selfRefreshEnergy     576185445247.347534                       # Energy for self refresh per rank (pJ)
system.mem_ctrls_0.totalEnergy           1063822979276.453369                       # Total energy per rank (pJ)
system.mem_ctrls_0.averagePower            348.482197                       # Core power per rank (mW)
system.mem_ctrls_0.totalIdleTime         2877137531595                       # Total Idle time Per DRAM Rank
system.mem_ctrls_0.memoryStateTime::IDLE  16915395021                       # Time in different power states
system.mem_ctrls_0.memoryStateTime::REF   50825600000                       # Time in different power states
system.mem_ctrls_0.memoryStateTime::SREF 1905799369220                       # Time in different power states
system.mem_ctrls_0.memoryStateTime::PRE_PDN 376650234113                       # Time in different power states
system.mem_ctrls_0.memoryStateTime::ACT  107830145064                       # Time in different power states
system.mem_ctrls_0.memoryStateTime::ACT_PDN 594711905082                       # Time in different power states
system.mem_ctrls_1.actEnergy             1587103264.656489                       # Energy for activate commands per rank (pJ)
system.mem_ctrls_1.preEnergy             2801847686.451030                       # Energy for precharge commands per rank (pJ)
system.mem_ctrls_1.readEnergy            2165153895.879415                       # Energy for read commands per rank (pJ)
system.mem_ctrls_1.writeEnergy           1187213804.447379                       # Energy for write commands per rank (pJ)
system.mem_ctrls_1.refreshEnergy         99248035747.852448                       # Energy for refresh commands per rank (pJ)
system.mem_ctrls_1.actBackEnergy         74108039300.212265                       # Energy for active background per rank (pJ)
system.mem_ctrls_1.preBackEnergy         6435804184.173077                       # Energy for precharge background per rank (pJ)
system.mem_ctrls_1.actPowerDownEnergy    214256717562.213470                       # Energy for active power-down per rank (pJ)
system.mem_ctrls_1.prePowerDownEnergy    91013399671.996078                       # Energy for precharge power-down per rank (pJ)
system.mem_ctrls_1.selfRefreshEnergy     572409578916.251099                       # Energy for self refresh per rank (pJ)
system.mem_ctrls_1.totalEnergy           1065536329304.180786                       # Total energy per rank (pJ)
system.mem_ctrls_1.averagePower            349.043448                       # Core power per rank (mW)
system.mem_ctrls_1.totalIdleTime         2875549047136                       # Total Idle time Per DRAM Rank
system.mem_ctrls_1.memoryStateTime::IDLE  16857964953                       # Time in different power states
system.mem_ctrls_1.memoryStateTime::REF   51396800000                       # Time in different power states
system.mem_ctrls_1.memoryStateTime::SREF 1893150660340                       # Time in different power states
system.mem_ctrls_1.memoryStateTime::PRE_PDN 379222638467                       # Time in different power states
system.mem_ctrls_1.memoryStateTime::ACT  108904445431                       # Time in different power states
system.mem_ctrls_1.memoryStateTime::ACT_PDN 603200139309                       # Time in different power states
system.pwrStateResidencyTicks::UNDEFINED 3052732648500                       # Cumulative time (in ticks) in various power states
system.cpu_voltage_domain.voltage                   1                       # Voltage in Volts
system.cpu_clk_domain.clock                       500                       # Clock period in ticks
system.cpu0.dtb.walker.pwrStateResidencyTicks::UNDEFINED 3052732648500                       # Cumulative time (in ticks) in various power states
system.cpu0.dtb.rdAccesses                   11113130                       # TLB accesses on read requests
system.cpu0.dtb.wrAccesses                    5557434                       # TLB accesses on write requests
system.cpu0.dtb.rdMisses                         5446                       # TLB misses on read requests
system.cpu0.dtb.wrMisses                            8                       # TLB misses on write requests
system.cpu0.apic_clk_domain.clock                8000                       # Clock period in ticks
system.cpu0.interrupts.pwrStateResidencyTicks::UNDEFINED 3052732648500                       # Cumulative time (in ticks) in various power states
system.cpu0.itb.walker.pwrStateResidencyTicks::UNDEFINED 3052732648500                       # Cumulative time (in ticks) in various power states
system.cpu0.itb.rdAccesses                          0                       # TLB accesses on read requests
system.cpu0.itb.wrAccesses                   38902845                       # TLB accesses on write requests
system.cpu0.itb.rdMisses                            0                       # TLB misses on read requests
system.cpu0.itb.wrMisses                           46                       # TLB misses on write requests
system.cpu0.workload.numSyscalls                   12                       # Number of system calls
system.cpu0.pwrStateResidencyTicks::ON   3052732648500                       # Cumulative time (in ticks) in various power states
system.cpu0.numCycles                       175995161                       # number of cpu cycles simulated
system.cpu0.numWorkItemsStarted                     0                       # number of work items this cpu started
system.cpu0.numWorkItemsCompleted                   0                       # number of work items this cpu completed
system.cpu0.committedInsts                   27788477                       # Number of instructions committed
system.cpu0.committedOps                     52798458                       # Number of ops (including micro ops) committed
system.cpu0.num_int_alu_accesses             52797624                       # Number of integer alu accesses
system.cpu0.num_fp_alu_accesses                  1230                       # Number of float alu accesses
system.cpu0.num_vec_alu_accesses                    0                       # Number of vector alu accesses
system.cpu0.num_func_calls                        390                       # number of times a function call or return occured
system.cpu0.num_conditional_control_insts      2779550                       # number of instructions that are conditional controls
system.cpu0.num_int_insts                    52797624                       # number of integer instructions
system.cpu0.num_fp_insts                         1230                       # number of float instructions
system.cpu0.num_vec_insts                           0                       # number of vector instructions
system.cpu0.num_int_register_reads          105593895                       # number of times the integer registers were read
system.cpu0.num_int_register_writes          44460024                       # number of times the integer registers were written
system.cpu0.num_fp_register_reads                1409                       # number of times the floating registers were read
system.cpu0.num_fp_register_writes                687                       # number of times the floating registers were written
system.cpu0.num_vec_register_reads                  0                       # number of times the vector registers were read
system.cpu0.num_vec_register_writes                 0                       # number of times the vector registers were written
system.cpu0.num_cc_register_reads            13900419                       # number of times the CC registers were read
system.cpu0.num_cc_register_writes           16673169                       # number of times the CC registers were written
system.cpu0.num_mem_refs                     16670560                       # number of memory refs
system.cpu0.num_load_insts                   11113127                       # Number of load instructions
system.cpu0.num_store_insts                   5557433                       # Number of store instructions
system.cpu0.num_idle_cycles              170921952.785939                       # Number of idle cycles
system.cpu0.num_busy_cycles              5073208.214061                       # Number of busy cycles
system.cpu0.not_idle_fraction                0.028826                       # Percentage of non-idle cycles
system.cpu0.idle_fraction                    0.971174                       # Percentage of idle cycles
system.cpu0.Branches                          2780111                       # Number of branches fetched
system.cpu0.op_class::No_OpClass                  340      0.00%      0.00% # Class of executed instruction
system.cpu0.op_class::IntAlu                 36126995     68.42%     68.42% # Class of executed instruction
system.cpu0.op_class::IntMult                       5      0.00%     68.42% # Class of executed instruction
system.cpu0.op_class::IntDiv                       28      0.00%     68.43% # Class of executed instruction
system.cpu0.op_class::FloatAdd                    144      0.00%     68.43% # Class of executed instruction
system.cpu0.op_class::FloatCmp                      0      0.00%     68.43% # Class of executed instruction
system.cpu0.op_class::FloatCvt                      0      0.00%     68.43% # Class of executed instruction
system.cpu0.op_class::FloatMult                     0      0.00%     68.43% # Class of executed instruction
system.cpu0.op_class::FloatMultAcc                  0      0.00%     68.43% # Class of executed instruction
system.cpu0.op_class::FloatDiv                      0      0.00%     68.43% # Class of executed instruction
system.cpu0.op_class::FloatMisc                     0      0.00%     68.43% # Class of executed instruction
system.cpu0.op_class::FloatSqrt                     0      0.00%     68.43% # Class of executed instruction
system.cpu0.op_class::SimdAdd                       0      0.00%     68.43% # Class of executed instruction
system.cpu0.op_class::SimdAddAcc                    0      0.00%     68.43% # Class of executed instruction
system.cpu0.op_class::SimdAlu                     104      0.00%     68.43% # Class of executed instruction
system.cpu0.op_class::SimdCmp                       0      0.00%     68.43% # Class of executed instruction
system.cpu0.op_class::SimdCvt                      54      0.00%     68.43% # Class of executed instruction
system.cpu0.op_class::SimdMisc                    228      0.00%     68.43% # Class of executed instruction
system.cpu0.op_class::SimdMult                      0      0.00%     68.43% # Class of executed instruction
system.cpu0.op_class::SimdMultAcc                   0      0.00%     68.43% # Class of executed instruction
system.cpu0.op_class::SimdShift                     0      0.00%     68.43% # Class of executed instruction
system.cpu0.op_class::SimdShiftAcc                  0      0.00%     68.43% # Class of executed instruction
system.cpu0.op_class::SimdSqrt                      0      0.00%     68.43% # Class of executed instruction
system.cpu0.op_class::SimdFloatAdd                  0      0.00%     68.43% # Class of executed instruction
system.cpu0.op_class::SimdFloatAlu                  0      0.00%     68.43% # Class of executed instruction
system.cpu0.op_class::SimdFloatCmp                  0      0.00%     68.43% # Class of executed instruction
system.cpu0.op_class::SimdFloatCvt                  0      0.00%     68.43% # Class of executed instruction
system.cpu0.op_class::SimdFloatDiv                  0      0.00%     68.43% # Class of executed instruction
system.cpu0.op_class::SimdFloatMisc                 0      0.00%     68.43% # Class of executed instruction
system.cpu0.op_class::SimdFloatMult                 0      0.00%     68.43% # Class of executed instruction
system.cpu0.op_class::SimdFloatMultAcc              0      0.00%     68.43% # Class of executed instruction
system.cpu0.op_class::SimdFloatSqrt                 0      0.00%     68.43% # Class of executed instruction
system.cpu0.op_class::MemRead                11113059     21.05%     89.47% # Class of executed instruction
system.cpu0.op_class::MemWrite                5556944     10.52%    100.00% # Class of executed instruction
system.cpu0.op_class::FloatMemRead                 68      0.00%    100.00% # Class of executed instruction
system.cpu0.op_class::FloatMemWrite               489      0.00%    100.00% # Class of executed instruction
system.cpu0.op_class::IprAccess                     0      0.00%    100.00% # Class of executed instruction
system.cpu0.op_class::InstPrefetch                  0      0.00%    100.00% # Class of executed instruction
system.cpu0.op_class::total                  52798458                       # Class of executed instruction
system.cpu0.dcache.tags.pwrStateResidencyTicks::UNDEFINED 3052732648500                       # Cumulative time (in ticks) in various power states
system.cpu0.dcache.tags.tagsinuse            7.999998                       # Cycle average of tags in use
system.cpu0.dcache.tags.total_refs           16670564                       # Total number of references to valid blocks.
system.cpu0.dcache.tags.sampled_refs           347954                       # Sample count of references to valid blocks.
system.cpu0.dcache.tags.avg_refs            47.910253                       # Average number of references to valid blocks.
system.cpu0.dcache.tags.warmup_cycle           176500                       # Cycle when the warmup percentage was hit.
system.cpu0.dcache.tags.occ_blocks::.cpu0.data     7.999998                       # Average occupied blocks per requestor
system.cpu0.dcache.tags.occ_percent::.cpu0.data     1.000000                       # Average percentage of cache occupancy
system.cpu0.dcache.tags.occ_percent::total     1.000000                       # Average percentage of cache occupancy
system.cpu0.dcache.tags.occ_task_id_blocks::1024            8                       # Occupied blocks per task id
system.cpu0.dcache.tags.age_task_id_blocks_1024::4            8                       # Occupied blocks per task id
system.cpu0.dcache.tags.occ_task_id_percent::1024            1                       # Percentage of cache occupancy per task id
system.cpu0.dcache.tags.tag_accesses        133712466                       # Number of tag accesses
system.cpu0.dcache.tags.data_accesses       133712466                       # Number of data accesses
system.cpu0.dcache.pwrStateResidencyTicks::UNDEFINED 3052732648500                       # Cumulative time (in ticks) in various power states
system.cpu0.dcache.ReadReq_hits::.cpu0.data     10765440                       # number of ReadReq hits
system.cpu0.dcache.ReadReq_hits::total       10765440                       # number of ReadReq hits
system.cpu0.dcache.WriteReq_hits::.cpu0.data      5557170                       # number of WriteReq hits
system.cpu0.dcache.WriteReq_hits::total       5557170                       # number of WriteReq hits
system.cpu0.dcache.demand_hits::.cpu0.data     16322610                       # number of demand (read+write) hits
system.cpu0.dcache.demand_hits::total        16322610                       # number of demand (read+write) hits
system.cpu0.dcache.overall_hits::.cpu0.data     16322610                       # number of overall hits
system.cpu0.dcache.overall_hits::total       16322610                       # number of overall hits
system.cpu0.dcache.ReadReq_misses::.cpu0.data       347690                       # number of ReadReq misses
system.cpu0.dcache.ReadReq_misses::total       347690                       # number of ReadReq misses
system.cpu0.dcache.WriteReq_misses::.cpu0.data          264                       # number of WriteReq misses
system.cpu0.dcache.WriteReq_misses::total          264                       # number of WriteReq misses
system.cpu0.dcache.demand_misses::.cpu0.data       347954                       # number of demand (read+write) misses
system.cpu0.dcache.demand_misses::total        347954                       # number of demand (read+write) misses
system.cpu0.dcache.overall_misses::.cpu0.data       347954                       # number of overall misses
system.cpu0.dcache.overall_misses::total       347954                       # number of overall misses
system.cpu0.dcache.ReadReq_miss_latency::.cpu0.data  32719905500                       # number of ReadReq miss cycles
system.cpu0.dcache.ReadReq_miss_latency::total  32719905500                       # number of ReadReq miss cycles
system.cpu0.dcache.WriteReq_miss_latency::.cpu0.data     14329500                       # number of WriteReq miss cycles
system.cpu0.dcache.WriteReq_miss_latency::total     14329500                       # number of WriteReq miss cycles
system.cpu0.dcache.demand_miss_latency::.cpu0.data  32734235000                       # number of demand (read+write) miss cycles
system.cpu0.dcache.demand_miss_latency::total  32734235000                       # number of demand (read+write) miss cycles
system.cpu0.dcache.overall_miss_latency::.cpu0.data  32734235000                       # number of overall miss cycles
system.cpu0.dcache.overall_miss_latency::total  32734235000                       # number of overall miss cycles
system.cpu0.dcache.ReadReq_accesses::.cpu0.data     11113130                       # number of ReadReq accesses(hits+misses)
system.cpu0.dcache.ReadReq_accesses::total     11113130                       # number of ReadReq accesses(hits+misses)
system.cpu0.dcache.WriteReq_accesses::.cpu0.data      5557434                       # number of WriteReq accesses(hits+misses)
system.cpu0.dcache.WriteReq_accesses::total      5557434                       # number of WriteReq accesses(hits+misses)
system.cpu0.dcache.demand_accesses::.cpu0.data     16670564                       # number of demand (read+write) accesses
system.cpu0.dcache.demand_accesses::total     16670564                       # number of demand (read+write) accesses
system.cpu0.dcache.overall_accesses::.cpu0.data     16670564                       # number of overall (read+write) accesses
system.cpu0.dcache.overall_accesses::total     16670564                       # number of overall (read+write) accesses
system.cpu0.dcache.ReadReq_miss_rate::.cpu0.data     0.031286                       # miss rate for ReadReq accesses
system.cpu0.dcache.ReadReq_miss_rate::total     0.031286                       # miss rate for ReadReq accesses
system.cpu0.dcache.WriteReq_miss_rate::.cpu0.data     0.000048                       # miss rate for WriteReq accesses
system.cpu0.dcache.WriteReq_miss_rate::total     0.000048                       # miss rate for WriteReq accesses
system.cpu0.dcache.demand_miss_rate::.cpu0.data     0.020872                       # miss rate for demand accesses
system.cpu0.dcache.demand_miss_rate::total     0.020872                       # miss rate for demand accesses
system.cpu0.dcache.overall_miss_rate::.cpu0.data     0.020872                       # miss rate for overall accesses
system.cpu0.dcache.overall_miss_rate::total     0.020872                       # miss rate for overall accesses
system.cpu0.dcache.ReadReq_avg_miss_latency::.cpu0.data 94106.547499                       # average ReadReq miss latency
system.cpu0.dcache.ReadReq_avg_miss_latency::total 94106.547499                       # average ReadReq miss latency
system.cpu0.dcache.WriteReq_avg_miss_latency::.cpu0.data 54278.409091                       # average WriteReq miss latency
system.cpu0.dcache.WriteReq_avg_miss_latency::total 54278.409091                       # average WriteReq miss latency
system.cpu0.dcache.demand_avg_miss_latency::.cpu0.data 94076.329055                       # average overall miss latency
system.cpu0.dcache.demand_avg_miss_latency::total 94076.329055                       # average overall miss latency
system.cpu0.dcache.overall_avg_miss_latency::.cpu0.data 94076.329055                       # average overall miss latency
system.cpu0.dcache.overall_avg_miss_latency::total 94076.329055                       # average overall miss latency
system.cpu0.dcache.blocked_cycles::no_mshrs            0                       # number of cycles access was blocked
system.cpu0.dcache.blocked_cycles::no_targets            0                       # number of cycles access was blocked
system.cpu0.dcache.blocked::no_mshrs                0                       # number of cycles access was blocked
system.cpu0.dcache.blocked::no_targets              0                       # number of cycles access was blocked
system.cpu0.dcache.avg_blocked_cycles::no_mshrs          nan                       # average number of cycles each access was blocked
system.cpu0.dcache.avg_blocked_cycles::no_targets          nan                       # average number of cycles each access was blocked
system.cpu0.dcache.writebacks::.writebacks          549                       # number of writebacks
system.cpu0.dcache.writebacks::total              549                       # number of writebacks
system.cpu0.dcache.ReadReq_mshr_misses::.cpu0.data       347690                       # number of ReadReq MSHR misses
system.cpu0.dcache.ReadReq_mshr_misses::total       347690                       # number of ReadReq MSHR misses
system.cpu0.dcache.WriteReq_mshr_misses::.cpu0.data          264                       # number of WriteReq MSHR misses
system.cpu0.dcache.WriteReq_mshr_misses::total          264                       # number of WriteReq MSHR misses
system.cpu0.dcache.demand_mshr_misses::.cpu0.data       347954                       # number of demand (read+write) MSHR misses
system.cpu0.dcache.demand_mshr_misses::total       347954                       # number of demand (read+write) MSHR misses
system.cpu0.dcache.overall_mshr_misses::.cpu0.data       347954                       # number of overall MSHR misses
system.cpu0.dcache.overall_mshr_misses::total       347954                       # number of overall MSHR misses
system.cpu0.dcache.ReadReq_mshr_miss_latency::.cpu0.data  32372215500                       # number of ReadReq MSHR miss cycles
system.cpu0.dcache.ReadReq_mshr_miss_latency::total  32372215500                       # number of ReadReq MSHR miss cycles
system.cpu0.dcache.WriteReq_mshr_miss_latency::.cpu0.data     14065500                       # number of WriteReq MSHR miss cycles
system.cpu0.dcache.WriteReq_mshr_miss_latency::total     14065500                       # number of WriteReq MSHR miss cycles
system.cpu0.dcache.demand_mshr_miss_latency::.cpu0.data  32386281000                       # number of demand (read+write) MSHR miss cycles
system.cpu0.dcache.demand_mshr_miss_latency::total  32386281000                       # number of demand (read+write) MSHR miss cycles
system.cpu0.dcache.overall_mshr_miss_latency::.cpu0.data  32386281000                       # number of overall MSHR miss cycles
system.cpu0.dcache.overall_mshr_miss_latency::total  32386281000                       # number of overall MSHR miss cycles
system.cpu0.dcache.ReadReq_mshr_miss_rate::.cpu0.data     0.031286                       # mshr miss rate for ReadReq accesses
system.cpu0.dcache.ReadReq_mshr_miss_rate::total     0.031286                       # mshr miss rate for ReadReq accesses
system.cpu0.dcache.WriteReq_mshr_miss_rate::.cpu0.data     0.000048                       # mshr miss rate for WriteReq accesses
system.cpu0.dcache.WriteReq_mshr_miss_rate::total     0.000048                       # mshr miss rate for WriteReq accesses
system.cpu0.dcache.demand_mshr_miss_rate::.cpu0.data     0.020872                       # mshr miss rate for demand accesses
system.cpu0.dcache.demand_mshr_miss_rate::total     0.020872                       # mshr miss rate for demand accesses
system.cpu0.dcache.overall_mshr_miss_rate::.cpu0.data     0.020872                       # mshr miss rate for overall accesses
system.cpu0.dcache.overall_mshr_miss_rate::total     0.020872                       # mshr miss rate for overall accesses
system.cpu0.dcache.ReadReq_avg_mshr_miss_latency::.cpu0.data 93106.547499                       # average ReadReq mshr miss latency
system.cpu0.dcache.ReadReq_avg_mshr_miss_latency::total 93106.547499                       # average ReadReq mshr miss latency
system.cpu0.dcache.WriteReq_avg_mshr_miss_latency::.cpu0.data 53278.409091                       # average WriteReq mshr miss latency
system.cpu0.dcache.WriteReq_avg_mshr_miss_latency::total 53278.409091                       # average WriteReq mshr miss latency
system.cpu0.dcache.demand_avg_mshr_miss_latency::.cpu0.data 93076.329055                       # average overall mshr miss latency
system.cpu0.dcache.demand_avg_mshr_miss_latency::total 93076.329055                       # average overall mshr miss latency
system.cpu0.dcache.overall_avg_mshr_miss_latency::.cpu0.data 93076.329055                       # average overall mshr miss latency
system.cpu0.dcache.overall_avg_mshr_miss_latency::total 93076.329055                       # average overall mshr miss latency
system.cpu0.dcache.replacements                347946                       # number of replacements
system.cpu0.dtb_walker_cache.tags.pwrStateResidencyTicks::UNDEFINED 3052732648500                       # Cumulative time (in ticks) in various power states
system.cpu0.dtb_walker_cache.tags.tagsinuse            0                       # Cycle average of tags in use
system.cpu0.dtb_walker_cache.tags.total_refs            0                       # Total number of references to valid blocks.
system.cpu0.dtb_walker_cache.tags.sampled_refs            0                       # Sample count of references to valid blocks.
system.cpu0.dtb_walker_cache.tags.avg_refs          nan                       # Average number of references to valid blocks.
system.cpu0.dtb_walker_cache.tags.warmup_cycle            0                       # Cycle when the warmup percentage was hit.
system.cpu0.dtb_walker_cache.tags.tag_accesses            0                       # Number of tag accesses
system.cpu0.dtb_walker_cache.tags.data_accesses            0                       # Number of data accesses
system.cpu0.dtb_walker_cache.pwrStateResidencyTicks::UNDEFINED 3052732648500                       # Cumulative time (in ticks) in various power states
system.cpu0.dtb_walker_cache.blocked_cycles::no_mshrs            0                       # number of cycles access was blocked
system.cpu0.dtb_walker_cache.blocked_cycles::no_targets            0                       # number of cycles access was blocked
system.cpu0.dtb_walker_cache.blocked::no_mshrs            0                       # number of cycles access was blocked
system.cpu0.dtb_walker_cache.blocked::no_targets            0                       # number of cycles access was blocked
system.cpu0.dtb_walker_cache.avg_blocked_cycles::no_mshrs          nan                       # average number of cycles each access was blocked
system.cpu0.dtb_walker_cache.avg_blocked_cycles::no_targets          nan                       # average number of cycles each access was blocked
system.cpu0.dtb_walker_cache.replacements            0                       # number of replacements
system.cpu0.icache.tags.pwrStateResidencyTicks::UNDEFINED 3052732648500                       # Cumulative time (in ticks) in various power states
system.cpu0.icache.tags.tagsinuse          433.690237                       # Cycle average of tags in use
system.cpu0.icache.tags.total_refs           38902845                       # Total number of references to valid blocks.
system.cpu0.icache.tags.sampled_refs              457                       # Sample count of references to valid blocks.
system.cpu0.icache.tags.avg_refs         85126.575492                       # Average number of references to valid blocks.
system.cpu0.icache.tags.warmup_cycle            87500                       # Cycle when the warmup percentage was hit.
[...]
system.l2.ReadCleanReq_mshr_misses::.cpu1.inst         9072                       # number of ReadCleanReq MSHR misses
system.l2.ReadCleanReq_mshr_misses::total         9529                       # number of ReadCleanReq MSHR misses
system.l2.ReadSharedReq_mshr_misses::.cpu0.data       347355                       # number of ReadSharedReq MSHR misses
system.l2.ReadSharedReq_mshr_misses::.cpu1.data       126602                       # number of ReadSharedReq MSHR misses
system.l2.ReadSharedReq_mshr_misses::total       473957                       # number of ReadSharedReq MSHR misses
system.l2.demand_mshr_misses::.cpu0.inst          457                       # number of demand (read+write) MSHR misses
system.l2.demand_mshr_misses::.cpu0.data       347485                       # number of demand (read+write) MSHR misses
system.l2.demand_mshr_misses::.cpu1.inst         9072                       # number of demand (read+write) MSHR misses
system.l2.demand_mshr_misses::.cpu1.data      1219808                       # number of demand (read+write) MSHR misses
system.l2.demand_mshr_misses::total           1576822                       # number of demand (read+write) MSHR misses
system.l2.overall_mshr_misses::.cpu0.inst          457                       # number of overall MSHR misses
system.l2.overall_mshr_misses::.cpu0.data       347485                       # number of overall MSHR misses
system.l2.overall_mshr_misses::.cpu1.inst         9072                       # number of overall MSHR misses
system.l2.overall_mshr_misses::.cpu1.data      1219808                       # number of overall MSHR misses
system.l2.overall_mshr_misses::total          1576822                       # number of overall MSHR misses
system.l2.ReadExReq_mshr_miss_latency::.cpu0.data     10959000                       # number of ReadExReq MSHR miss cycles
system.l2.ReadExReq_mshr_miss_latency::.cpu1.data 113769855500                       # number of ReadExReq MSHR miss cycles
system.l2.ReadExReq_mshr_miss_latency::total 113780814500                       # number of ReadExReq MSHR miss cycles
system.l2.ReadCleanReq_mshr_miss_latency::.cpu0.inst     32646500                       # number of ReadCleanReq MSHR miss cycles
system.l2.ReadCleanReq_mshr_miss_latency::.cpu1.inst   1198155000                       # number of ReadCleanReq MSHR miss cycles
system.l2.ReadCleanReq_mshr_miss_latency::total   1230801500                       # number of ReadCleanReq MSHR miss cycles
system.l2.ReadSharedReq_mshr_miss_latency::.cpu0.data  28357368500                       # number of ReadSharedReq MSHR miss cycles
system.l2.ReadSharedReq_mshr_miss_latency::.cpu1.data  48651702500                       # number of ReadSharedReq MSHR miss cycles
system.l2.ReadSharedReq_mshr_miss_latency::total  77009071000                       # number of ReadSharedReq MSHR miss cycles
system.l2.demand_mshr_miss_latency::.cpu0.inst     32646500                       # number of demand (read+write) MSHR miss cycles
system.l2.demand_mshr_miss_latency::.cpu0.data  28368327500                       # number of demand (read+write) MSHR miss cycles
system.l2.demand_mshr_miss_latency::.cpu1.inst   1198155000                       # number of demand (read+write) MSHR miss cycles
system.l2.demand_mshr_miss_latency::.cpu1.data 162421558000                       # number of demand (read+write) MSHR miss cycles
system.l2.demand_mshr_miss_latency::total 192020687000                       # number of demand (read+write) MSHR miss cycles
system.l2.overall_mshr_miss_latency::.cpu0.inst     32646500                       # number of overall MSHR miss cycles
system.l2.overall_mshr_miss_latency::.cpu0.data  28368327500                       # number of overall MSHR miss cycles
system.l2.overall_mshr_miss_latency::.cpu1.inst   1198155000                       # number of overall MSHR miss cycles
system.l2.overall_mshr_miss_latency::.cpu1.data 162421558000                       # number of overall MSHR miss cycles
system.l2.overall_mshr_miss_latency::total 192020687000                       # number of overall MSHR miss cycles
system.l2.CleanEvict_mshr_miss_rate::.writebacks          inf                       # mshr miss rate for CleanEvict accesses
system.l2.CleanEvict_mshr_miss_rate::total          inf                       # mshr miss rate for CleanEvict accesses
system.l2.ReadExReq_mshr_miss_rate::.cpu0.data     0.492424                       # mshr miss rate for ReadExReq accesses
system.l2.ReadExReq_mshr_miss_rate::.cpu1.data     0.048775                       # mshr miss rate for ReadExReq accesses
system.l2.ReadExReq_mshr_miss_rate::total     0.048780                       # mshr miss rate for ReadExReq accesses
system.l2.ReadCleanReq_mshr_miss_rate::.cpu0.inst            1                       # mshr miss rate for ReadCleanReq accesses
system.l2.ReadCleanReq_mshr_miss_rate::.cpu1.inst     0.121684                       # mshr miss rate for ReadCleanReq accesses
system.l2.ReadCleanReq_mshr_miss_rate::total     0.127035                       # mshr miss rate for ReadCleanReq accesses
system.l2.ReadSharedReq_mshr_miss_rate::.cpu0.data     0.999036                       # mshr miss rate for ReadSharedReq accesses
system.l2.ReadSharedReq_mshr_miss_rate::.cpu1.data     0.002098                       # mshr miss rate for ReadSharedReq accesses
system.l2.ReadSharedReq_mshr_miss_rate::total     0.007808                       # mshr miss rate for ReadSharedReq accesses
system.l2.demand_mshr_miss_rate::.cpu0.inst            1                       # mshr miss rate for demand accesses
system.l2.demand_mshr_miss_rate::.cpu0.data     0.998652                       # mshr miss rate for demand accesses
system.l2.demand_mshr_miss_rate::.cpu1.inst     0.121684                       # mshr miss rate for demand accesses
system.l2.demand_mshr_miss_rate::.cpu1.data     0.014737                       # mshr miss rate for demand accesses
system.l2.demand_mshr_miss_rate::total       0.018954                       # mshr miss rate for demand accesses
system.l2.overall_mshr_miss_rate::.cpu0.inst            1                       # mshr miss rate for overall accesses
system.l2.overall_mshr_miss_rate::.cpu0.data     0.998652                       # mshr miss rate for overall accesses
system.l2.overall_mshr_miss_rate::.cpu1.inst     0.121684                       # mshr miss rate for overall accesses
system.l2.overall_mshr_miss_rate::.cpu1.data     0.014737                       # mshr miss rate for overall accesses
system.l2.overall_mshr_miss_rate::total      0.018954                       # mshr miss rate for overall accesses
system.l2.ReadExReq_avg_mshr_miss_latency::.cpu0.data        84300                       # average ReadExReq mshr miss latency
system.l2.ReadExReq_avg_mshr_miss_latency::.cpu1.data 104069.915002                       # average ReadExReq mshr miss latency
system.l2.ReadExReq_avg_mshr_miss_latency::total 104067.564317                       # average ReadExReq mshr miss latency
system.l2.ReadCleanReq_avg_mshr_miss_latency::.cpu0.inst 71436.542670                       # average ReadCleanReq mshr miss latency
system.l2.ReadCleanReq_avg_mshr_miss_latency::.cpu1.inst 132071.759259                       # average ReadCleanReq mshr miss latency
system.l2.ReadCleanReq_avg_mshr_miss_latency::total 129163.763249                       # average ReadCleanReq mshr miss latency
system.l2.ReadSharedReq_avg_mshr_miss_latency::.cpu0.data 81638.002908                       # average ReadSharedReq mshr miss latency
system.l2.ReadSharedReq_avg_mshr_miss_latency::.cpu1.data 384288.577590                       # average ReadSharedReq mshr miss latency
system.l2.ReadSharedReq_avg_mshr_miss_latency::total 162481.134365                       # average ReadSharedReq mshr miss latency
system.l2.demand_avg_mshr_miss_latency::.cpu0.inst 71436.542670                       # average overall mshr miss latency
system.l2.demand_avg_mshr_miss_latency::.cpu0.data 81638.998806                       # average overall mshr miss latency
system.l2.demand_avg_mshr_miss_latency::.cpu1.inst 132071.759259                       # average overall mshr miss latency
system.l2.demand_avg_mshr_miss_latency::.cpu1.data 133153.379876                       # average overall mshr miss latency
system.l2.demand_avg_mshr_miss_latency::total 121777.021756                       # average overall mshr miss latency
system.l2.overall_avg_mshr_miss_latency::.cpu0.inst 71436.542670                       # average overall mshr miss latency
system.l2.overall_avg_mshr_miss_latency::.cpu0.data 81638.998806                       # average overall mshr miss latency
system.l2.overall_avg_mshr_miss_latency::.cpu1.inst 132071.759259                       # average overall mshr miss latency
system.l2.overall_avg_mshr_miss_latency::.cpu1.data 133153.379876                       # average overall mshr miss latency
system.l2.overall_avg_mshr_miss_latency::total 121777.021756                       # average overall mshr miss latency
system.l2.replacements                        1475199                       # number of replacements
system.membus.snoop_filter.tot_requests       3049658                       # Total number of requests made to the snoop filter.
system.membus.snoop_filter.hit_single_requests      1472836                       # Number of requests hitting in the snoop filter with a single holder of the requested data.
system.membus.snoop_filter.hit_multi_requests            0                       # Number of requests hitting in the snoop filter with multiple (>1) holders of the requested data.
system.membus.snoop_filter.tot_snoops               0                       # Total number of snoops made to the snoop filter.
system.membus.snoop_filter.hit_single_snoops            0                       # Number of snoops hitting in the snoop filter with a single holder of the requested data.
system.membus.snoop_filter.hit_multi_snoops            0                       # Number of snoops hitting in the snoop filter with multiple (>1) holders of the requested data.
system.membus.pwrStateResidencyTicks::UNDEFINED 3052732648500                       # Cumulative time (in ticks) in various power states
system.membus.trans_dist::ReadResp             483486                       # Transaction distribution
system.membus.trans_dist::WritebackDirty      1006697                       # Transaction distribution
system.membus.trans_dist::CleanEvict           466139                       # Transaction distribution
system.membus.trans_dist::ReadExReq           1093336                       # Transaction distribution
system.membus.trans_dist::ReadExResp          1093336                       # Transaction distribution
system.membus.trans_dist::ReadSharedReq        483486                       # Transaction distribution
system.membus.pkt_count_system.l2.mem_side::system.mem_ctrls.port      4626480                       # Packet count per connected master and slave (bytes)
system.membus.pkt_count_system.l2.mem_side::total      4626480                       # Packet count per connected master and slave (bytes)
system.membus.pkt_count::total                4626480                       # Packet count per connected master and slave (bytes)
system.membus.pkt_size_system.l2.mem_side::system.mem_ctrls.port    165345216                       # Cumulative packet size per connected master and slave (bytes)
system.membus.pkt_size_system.l2.mem_side::total    165345216                       # Cumulative packet size per connected master and slave (bytes)
system.membus.pkt_size::total               165345216                       # Cumulative packet size per connected master and slave (bytes)
system.membus.snoops                                0                       # Total snoops (count)
system.membus.snoopTraffic                          0                       # Total snoop traffic (bytes)
system.membus.snoop_fanout::samples           1576822                       # Request fanout histogram
system.membus.snoop_fanout::mean                    0                       # Request fanout histogram
system.membus.snoop_fanout::stdev                   0                       # Request fanout histogram
system.membus.snoop_fanout::underflows              0      0.00%      0.00% # Request fanout histogram
system.membus.snoop_fanout::0                 1576822    100.00%    100.00% # Request fanout histogram
system.membus.snoop_fanout::1                       0      0.00%    100.00% # Request fanout histogram
system.membus.snoop_fanout::overflows               0      0.00%    100.00% # Request fanout histogram
system.membus.snoop_fanout::min_value               0                       # Request fanout histogram
system.membus.snoop_fanout::max_value               0                       # Request fanout histogram
system.membus.snoop_fanout::total             1576822                       # Request fanout histogram
system.membus.reqLayer4.occupancy          7086961500                       # Layer occupancy (ticks)
system.membus.reqLayer4.utilization               0.2                       # Layer utilization (%)
system.membus.respLayer1.occupancy         8527108627                       # Layer occupancy (ticks)
system.membus.respLayer1.utilization              0.3                       # Layer utilization (%)
system.tol2bus.snoop_filter.tot_requests    166383866                       # Total number of requests made to the snoop filter.
system.tol2bus.snoop_filter.hit_single_requests     83191451                       # Number of requests hitting in the snoop filter with a single holder of the requested data.
system.tol2bus.snoop_filter.hit_multi_requests            0                       # Number of requests hitting in the snoop filter with multiple (>1) holders of the requested data.
system.tol2bus.snoop_filter.tot_snoops           2412                       # Total number of snoops made to the snoop filter.
system.tol2bus.snoop_filter.hit_single_snoops         2412                       # Number of snoops hitting in the snoop filter with a single holder of the requested data.
system.tol2bus.snoop_filter.hit_multi_snoops            0                       # Number of snoops hitting in the snoop filter with multiple (>1) holders of the requested data.
system.tol2bus.pwrStateResidencyTicks::UNDEFINED 3052732648500                       # Cumulative time (in ticks) in various power states
system.tol2bus.trans_dist::ReadResp          60778788                       # Transaction distribution
system.tol2bus.trans_dist::WritebackDirty     66354033                       # Transaction distribution
system.tol2bus.trans_dist::WritebackClean        74063                       # Transaction distribution
system.tol2bus.trans_dist::CleanEvict        18238554                       # Transaction distribution
system.tol2bus.trans_dist::ReadExReq         22413627                       # Transaction distribution
system.tol2bus.trans_dist::ReadExResp        22413627                       # Transaction distribution
system.tol2bus.trans_dist::ReadCleanReq         75011                       # Transaction distribution
system.tol2bus.trans_dist::ReadSharedReq     60703777                       # Transaction distribution
system.tol2bus.pkt_count_system.cpu0.icache.mem_side::system.l2.cpu_side          935                       # Packet count per connected master and slave (bytes)
system.tol2bus.pkt_count_system.cpu0.dcache.mem_side::system.l2.cpu_side      1043854                       # Packet count per connected master and slave (bytes)
system.tol2bus.pkt_count_system.cpu1.icache.mem_side::system.l2.cpu_side       223150                       # Packet count per connected master and slave (bytes)
system.tol2bus.pkt_count_system.cpu1.dcache.mem_side::system.l2.cpu_side    248308342                       # Packet count per connected master and slave (bytes)
system.tol2bus.pkt_count::total             249576281                       # Packet count per connected master and slave (bytes)
system.tol2bus.pkt_size_system.cpu0.icache.mem_side::system.l2.cpu_side        30592                       # Cumulative packet size per connected master and slave (bytes)
system.tol2bus.pkt_size_system.cpu0.dcache.mem_side::system.l2.cpu_side     22304192                       # Cumulative packet size per connected master and slave (bytes)
system.tol2bus.pkt_size_system.cpu1.icache.mem_side::system.l2.cpu_side      9510144                       # Cumulative packet size per connected master and slave (bytes)
system.tol2bus.pkt_size_system.cpu1.dcache.mem_side::system.l2.cpu_side   9479439168                       # Cumulative packet size per connected master and slave (bytes)
system.tol2bus.pkt_size::total             9511284096                       # Cumulative packet size per connected master and slave (bytes)
system.tol2bus.snoops                         1475199                       # Total snoops (count)
system.tol2bus.snoopTraffic                  64428608                       # Total snoop traffic (bytes)
system.tol2bus.snoop_fanout::samples         84667614                       # Request fanout histogram
system.tol2bus.snoop_fanout::mean            0.000028                       # Request fanout histogram
system.tol2bus.snoop_fanout::stdev           0.005337                       # Request fanout histogram
system.tol2bus.snoop_fanout::underflows             0      0.00%      0.00% # Request fanout histogram
system.tol2bus.snoop_fanout::0               84665202    100.00%    100.00% # Request fanout histogram
system.tol2bus.snoop_fanout::1                   2412      0.00%    100.00% # Request fanout histogram
system.tol2bus.snoop_fanout::2                      0      0.00%    100.00% # Request fanout histogram
system.tol2bus.snoop_fanout::3                      0      0.00%    100.00% # Request fanout histogram
system.tol2bus.snoop_fanout::4                      0      0.00%    100.00% # Request fanout histogram
system.tol2bus.snoop_fanout::5                      0      0.00%    100.00% # Request fanout histogram
system.tol2bus.snoop_fanout::6                      0      0.00%    100.00% # Request fanout histogram
system.tol2bus.snoop_fanout::7                      0      0.00%    100.00% # Request fanout histogram
system.tol2bus.snoop_fanout::8                      0      0.00%    100.00% # Request fanout histogram
system.tol2bus.snoop_fanout::overflows              0      0.00%    100.00% # Request fanout histogram
system.tol2bus.snoop_fanout::min_value              0                       # Request fanout histogram
system.tol2bus.snoop_fanout::max_value              1                       # Request fanout histogram
system.tol2bus.snoop_fanout::total           84667614                       # Request fanout histogram
system.tol2bus.reqLayer0.occupancy       148613332000                       # Layer occupancy (ticks)
system.tol2bus.reqLayer0.utilization              4.9                       # Layer utilization (%)
system.tol2bus.respLayer0.occupancy            687995                       # Layer occupancy (ticks)
system.tol2bus.respLayer0.utilization             0.0                       # Layer utilization (%)
system.tol2bus.respLayer1.occupancy         527495349                       # Layer occupancy (ticks)
system.tol2bus.respLayer1.utilization             0.0                       # Layer utilization (%)
system.tol2bus.respLayer4.occupancy         111831998                       # Layer occupancy (ticks)
system.tol2bus.respLayer4.utilization             0.0                       # Layer utilization (%)
system.tol2bus.respLayer5.occupancy      124154175499                       # Layer occupancy (ticks)
system.tol2bus.respLayer5.utilization             4.1                       # Layer utilization (%)

---------- End Simulation Statistics   ----------
