
---------- Begin Simulation Statistics ----------
final_tick                               2070396716148                       # Number of ticks from beginning of simulation (restored from checkpoints and never reset)
host_inst_rate                                 598356                       # Simulator instruction rate (inst/s)
host_mem_usage                                9990748                       # Number of bytes of host memory used
host_op_rate                                  1365252                       # Simulator op (including micro ops) rate (op/s)
host_seconds                                  1717.69                       # Real time elapsed on the host
host_tick_rate                             1205339935                       # Simulator tick rate (ticks/s)
sim_freq                                 1000000000000                       # Frequency of simulated ticks
sim_insts                                  1027788100                       # Number of instructions simulated
sim_ops                                    2345075940                       # Number of ops (including micro ops) simulated
sim_seconds                                  2.070397                       # Number of seconds simulated
sim_ticks                                2070396716148                       # Number of ticks simulated
system.cpu0.Branches                          2780018                       # Number of branches fetched
system.cpu0.committedInsts                   27788099                       # Number of instructions committed
system.cpu0.committedOps                     52797721                       # Number of ops (including micro ops) committed
system.cpu0.dtb.rdAccesses                   11113063                       # TLB accesses on read requests
system.cpu0.dtb.rdMisses                         5446                       # TLB misses on read requests
system.cpu0.dtb.wrAccesses                    5557395                       # TLB accesses on write requests
system.cpu0.dtb.wrMisses                            8                       # TLB misses on write requests
system.cpu0.idle_fraction                    0.967320                       # Percentage of idle cycles
system.cpu0.itb.rdAccesses                          0                       # TLB accesses on read requests
system.cpu0.itb.rdMisses                            0                       # TLB misses on read requests
system.cpu0.itb.wrAccesses                   38902351                       # TLB accesses on write requests
system.cpu0.itb.wrMisses                           46                       # TLB misses on write requests
system.cpu0.not_idle_fraction                0.032680                       # Percentage of non-idle cycles
system.cpu0.numCycles                       203183340                       # number of cpu cycles simulated
system.cpu0.numWorkItemsCompleted                   0                       # number of work items this cpu completed
system.cpu0.numWorkItemsStarted                     0                       # number of work items this cpu started
system.cpu0.num_busy_cycles              6639981.259343                       # Number of busy cycles
system.cpu0.num_cc_register_reads            13899961                       # number of times the CC registers were read
system.cpu0.num_cc_register_writes           16672913                       # number of times the CC registers were written
system.cpu0.num_conditional_control_insts      2779471                       # number of instructions that are conditional controls
system.cpu0.num_fp_alu_accesses                  1214                       # Number of float alu accesses
system.cpu0.num_fp_insts                         1214                       # number of float instructions
system.cpu0.num_fp_register_reads                1401                       # number of times the floating registers were read
system.cpu0.num_fp_register_writes                679                       # number of times the floating registers were written
system.cpu0.num_func_calls                        384                       # number of times a function call or return occured
system.cpu0.num_idle_cycles              196543358.740657                       # Number of idle cycles
system.cpu0.num_int_alu_accesses             52796880                       # Number of integer alu accesses
system.cpu0.num_int_insts                    52796880                       # number of integer instructions
system.cpu0.num_int_register_reads          105592520                       # number of times the integer registers were read
system.cpu0.num_int_register_writes          44459432                       # number of times the integer registers were written
system.cpu0.num_load_insts                   11113060                       # Number of load instructions
system.cpu0.num_mem_refs                     16670454                       # number of memory refs
system.cpu0.num_store_insts                   5557394                       # Number of store instructions
system.cpu0.num_vec_alu_accesses                    0                       # Number of vector alu accesses
system.cpu0.num_vec_insts                           0                       # number of vector instructions
system.cpu0.num_vec_register_reads                  0                       # number of times the vector registers were read
system.cpu0.num_vec_register_writes                 0                       # number of times the vector registers were written
system.cpu0.op_class::No_OpClass                  336      0.00%      0.00% # Class of executed instruction
system.cpu0.op_class::IntAlu                 36126368     68.42%     68.42% # Class of executed instruction
system.cpu0.op_class::IntMult                       5      0.00%     68.42% # Class of executed instruction
system.cpu0.op_class::IntDiv                       28      0.00%     68.42% # Class of executed instruction
system.cpu0.op_class::FloatAdd                    144      0.00%     68.43% # Class of executed instruction
system.cpu0.op_class::FloatCmp                      0      0.00%     68.43% # Class of executed instruction
system.cpu0.op_class::FloatCvt                      0      0.00%     68.43% # Class of executed instruction
system.cpu0.op_class::FloatMult                     0      0.00%     68.43% # Class of executed instruction
system.cpu0.op_class::FloatMultAcc                  0      0.00%     68.43% # Class of executed instruction
system.cpu0.op_class::FloatDiv                      0      0.00%     68.43% # Class of executed instruction
system.cpu0.op_class::FloatMisc                     0      0.00%     68.43% # Class of executed instruction
system.cpu0.op_class::FloatSqrt                     0      0.00%     68.43% # Class of executed instruction
system.cpu0.op_class::SimdAdd                       0      0.00%     68.43% # Class of executed instruction
system.cpu0.op_class::SimdAddAcc                    0      0.00%     68.43% # Class of executed instruction
system.cpu0.op_class::SimdAlu                     104      0.00%     68.43% # Class of executed instruction
system.cpu0.op_class::SimdCmp                       0      0.00%     68.43% # Class of executed instruction
system.cpu0.op_class::SimdCvt                      54      0.00%     68.43% # Class of executed instruction
system.cpu0.op_class::SimdMisc                    228      0.00%     68.43% # Class of executed instruction
system.cpu0.op_class::SimdMult                      0      0.00%     68.43% # Class of executed instruction
system.cpu0.op_class::SimdMultAcc                   0      0.00%     68.43% # Class of executed instruction
system.cpu0.op_class::SimdShift                     0      0.00%     68.43% # Class of executed instruction
system.cpu0.op_class::SimdShiftAcc                  0      0.00%     68.43% # Class of executed instruction
system.cpu0.op_class::SimdDiv                       0      0.00%     68.43% # Class of executed instruction
system.cpu0.op_class::SimdSqrt                      0      0.00%     68.43% # Class of executed instruction
system.cpu0.op_class::SimdFloatAdd                  0      0.00%     68.43% # Class of executed instruction
system.cpu0.op_class::SimdFloatAlu                  0      0.00%     68.43% # Class of executed instruction
system.cpu0.op_class::SimdFloatCmp                  0      0.00%     68.43% # Class of executed instruction
system.cpu0.op_class::SimdFloatCvt                  0      0.00%     68.43% # Class of executed instruction
system.cpu0.op_class::SimdFloatDiv                  0      0.00%     68.43% # Class of executed instruction
system.cpu0.op_class::SimdFloatMisc                 0      0.00%     68.43% # Class of executed instruction
system.cpu0.op_class::SimdFloatMult                 0      0.00%     68.43% # Class of executed instruction
system.cpu0.op_class::SimdFloatMultAcc              0      0.00%     68.43% # Class of executed instruction
system.cpu0.op_class::SimdFloatSqrt                 0      0.00%     68.43% # Class of executed instruction
system.cpu0.op_class::SimdReduceAdd                 0      0.00%     68.43% # Class of executed instruction
system.cpu0.op_class::SimdReduceAlu                 0      0.00%     68.43% # Class of executed instruction
system.cpu0.op_class::SimdReduceCmp                 0      0.00%     68.43% # Class of executed instruction
system.cpu0.op_class::SimdFloatReduceAdd            0      0.00%     68.43% # Class of executed instruction
system.cpu0.op_class::SimdFloatReduceCmp            0      0.00%     68.43% # Class of executed instruction
system.cpu0.op_class::SimdAes                       0      0.00%     68.43% # Class of executed instruction
system.cpu0.op_class::SimdAesMix                    0      0.00%     68.43% # Class of executed instruction
system.cpu0.op_class::SimdSha1Hash                  0      0.00%     68.43% # Class of executed instruction
system.cpu0.op_class::SimdSha1Hash2                 0      0.00%     68.43% # Class of executed instruction
system.cpu0.op_class::SimdSha256Hash                0      0.00%     68.43% # Class of executed instruction
system.cpu0.op_class::SimdSha256Hash2               0      0.00%     68.43% # Class of executed instruction
system.cpu0.op_class::SimdShaSigma2                 0      0.00%     68.43% # Class of executed instruction
system.cpu0.op_class::SimdShaSigma3                 0      0.00%     68.43% # Class of executed instruction
system.cpu0.op_class::SimdPredAlu                   0      0.00%     68.43% # Class of executed instruction
system.cpu0.op_class::MemRead                11113000     21.05%     89.47% # Class of executed instruction
system.cpu0.op_class::MemWrite                5556913     10.52%    100.00% # Class of executed instruction
system.cpu0.op_class::FloatMemRead                 60      0.00%    100.00% # Class of executed instruction
system.cpu0.op_class::FloatMemWrite               481      0.00%    100.00% # Class of executed instruction
system.cpu0.op_class::IprAccess                     0      0.00%    100.00% # Class of executed instruction
system.cpu0.op_class::InstPrefetch                  0      0.00%    100.00% # Class of executed instruction
system.cpu0.op_class::total                  52797721                       # Class of executed instruction
system.cpu0.workload.numSyscalls                   12                       # Number of system calls
system.cpu1.Branches                        252032697                       # Number of branches fetched
system.cpu1.committedInsts                 1000000001                       # Number of instructions committed
system.cpu1.committedOps                   2292278219                       # Number of ops (including micro ops) committed
system.cpu1.dtb.rdAccesses                  236700098                       # TLB accesses on read requests
system.cpu1.dtb.rdMisses                        81180                       # TLB misses on read requests
system.cpu1.dtb.wrAccesses                   74762838                       # TLB accesses on write requests
system.cpu1.dtb.wrMisses                        13602                       # TLB misses on write requests
system.cpu1.idle_fraction                           0                       # Percentage of idle cycles
system.cpu1.itb.rdAccesses                          0                       # TLB accesses on read requests
system.cpu1.itb.rdMisses                            0                       # TLB misses on read requests
system.cpu1.itb.wrAccesses                 1273757484                       # TLB accesses on write requests
system.cpu1.itb.wrMisses                         1025                       # TLB misses on write requests
system.cpu1.not_idle_fraction                       1                       # Percentage of non-idle cycles
system.cpu1.numCycles                      6217407556                       # number of cpu cycles simulated
system.cpu1.numWorkItemsCompleted                   0                       # number of work items this cpu completed
system.cpu1.numWorkItemsStarted                     0                       # number of work items this cpu started
system.cpu1.num_busy_cycles                6217407556                       # Number of busy cycles
system.cpu1.num_cc_register_reads          1745390848                       # number of times the CC registers were read
system.cpu1.num_cc_register_writes          666043922                       # number of times the CC registers were written
system.cpu1.num_conditional_control_insts    190418611                       # number of instructions that are conditional controls
system.cpu1.num_fp_alu_accesses             194890682                       # Number of float alu accesses
system.cpu1.num_fp_insts                    194890682                       # number of float instructions
system.cpu1.num_fp_register_reads           317961870                       # number of times the floating registers were read
system.cpu1.num_fp_register_writes          162601093                       # number of times the floating registers were written
system.cpu1.num_func_calls                   32432038                       # number of times a function call or return occured
system.cpu1.num_idle_cycles                         0                       # Number of idle cycles
system.cpu1.num_int_alu_accesses           2110581127                       # Number of integer alu accesses
system.cpu1.num_int_insts                  2110581127                       # number of integer instructions
system.cpu1.num_int_register_reads         4026314939                       # number of times the integer registers were read
system.cpu1.num_int_register_writes        1767081424                       # number of times the integer registers were written
system.cpu1.num_load_insts                  234379338                       # Number of load instructions
system.cpu1.num_mem_refs                    309120188                       # number of memory refs
system.cpu1.num_store_insts                  74740850                       # Number of store instructions
system.cpu1.num_vec_alu_accesses                    0                       # Number of vector alu accesses
system.cpu1.num_vec_insts                           0                       # number of vector instructions
system.cpu1.num_vec_register_reads                  0                       # number of times the vector registers were read
system.cpu1.num_vec_register_writes                 0                       # number of times the vector registers were written
system.cpu1.op_class::No_OpClass             61385757      2.68%      2.68% # Class of executed instruction
system.cpu1.op_class::IntAlu               1769489020     77.19%     79.87% # Class of executed instruction
system.cpu1.op_class::IntMult                 8565954      0.37%     80.24% # Class of executed instruction
system.cpu1.op_class::IntDiv                   722030      0.03%     80.27% # Class of executed instruction
system.cpu1.op_class::FloatAdd                1407292      0.06%     80.33% # Class of executed instruction
system.cpu1.op_class::FloatCmp                      0      0.00%     80.33% # Class of executed instruction
system.cpu1.op_class::FloatCvt                      0      0.00%     80.33% # Class of executed instruction
system.cpu1.op_class::FloatMult                     0      0.00%     80.33% # Class of executed instruction
system.cpu1.op_class::FloatMultAcc                  0      0.00%     80.33% # Class of executed instruction
system.cpu1.op_class::FloatDiv                      0      0.00%     80.33% # Class of executed instruction
system.cpu1.op_class::FloatMisc                     0      0.00%     80.33% # Class of executed instruction
system.cpu1.op_class::FloatSqrt                     0      0.00%     80.33% # Class of executed instruction
system.cpu1.op_class::SimdAdd                11930002      0.52%     80.85% # Class of executed instruction
system.cpu1.op_class::SimdAddAcc                    0      0.00%     80.85% # Class of executed instruction
system.cpu1.op_class::SimdAlu                59794940      2.61%     83.46% # Class of executed instruction
system.cpu1.op_class::SimdCmp                    8462      0.00%     83.46% # Class of executed instruction
system.cpu1.op_class::SimdCvt                35572024      1.55%     85.01% # Class of executed instruction
system.cpu1.op_class::SimdMisc               24382149      1.06%     86.08% # Class of executed instruction
system.cpu1.op_class::SimdMult                      0      0.00%     86.08% # Class of executed instruction
system.cpu1.op_class::SimdMultAcc                   0      0.00%     86.08% # Class of executed instruction
system.cpu1.op_class::SimdShift               8346406      0.36%     86.44% # Class of executed instruction
system.cpu1.op_class::SimdShiftAcc                  0      0.00%     86.44% # Class of executed instruction
system.cpu1.op_class::SimdDiv                       0      0.00%     86.44% # Class of executed instruction
system.cpu1.op_class::SimdSqrt                      0      0.00%     86.44% # Class of executed instruction
system.cpu1.op_class::SimdFloatAdd             731444      0.03%     86.47% # Class of executed instruction
system.cpu1.op_class::SimdFloatAlu                  0      0.00%     86.47% # Class of executed instruction
system.cpu1.op_class::SimdFloatCmp                 50      0.00%     86.47% # Class of executed instruction
system.cpu1.op_class::SimdFloatCvt             346613      0.02%     86.49% # Class of executed instruction
system.cpu1.op_class::SimdFloatDiv                308      0.00%     86.49% # Class of executed instruction
system.cpu1.op_class::SimdFloatMisc                 0      0.00%     86.49% # Class of executed instruction
system.cpu1.op_class::SimdFloatMult            600946      0.03%     86.52% # Class of executed instruction
system.cpu1.op_class::SimdFloatMultAcc              0      0.00%     86.52% # Class of executed instruction
system.cpu1.op_class::SimdFloatSqrt                18      0.00%     86.52% # Class of executed instruction
system.cpu1.op_class::SimdReduceAdd                 0      0.00%     86.52% # Class of executed instruction
system.cpu1.op_class::SimdReduceAlu                 0      0.00%     86.52% # Class of executed instruction
system.cpu1.op_class::SimdReduceCmp                 0      0.00%     86.52% # Class of executed instruction
system.cpu1.op_class::SimdFloatReduceAdd            0      0.00%     86.52% # Class of executed instruction
system.cpu1.op_class::SimdFloatReduceCmp            0      0.00%     86.52% # Class of executed instruction
system.cpu1.op_class::SimdAes                       0      0.00%     86.52% # Class of executed instruction
system.cpu1.op_class::SimdAesMix                    0      0.00%     86.52% # Class of executed instruction
system.cpu1.op_class::SimdSha1Hash                  0      0.00%     86.52% # Class of executed instruction
system.cpu1.op_class::SimdSha1Hash2                 0      0.00%     86.52% # Class of executed instruction
system.cpu1.op_class::SimdSha256Hash                0      0.00%     86.52% # Class of executed instruction
system.cpu1.op_class::SimdSha256Hash2               0      0.00%     86.52% # Class of executed instruction
system.cpu1.op_class::SimdShaSigma2                 0      0.00%     86.52% # Class of executed instruction
system.cpu1.op_class::SimdShaSigma3                 0      0.00%     86.52% # Class of executed instruction
system.cpu1.op_class::SimdPredAlu                   0      0.00%     86.52% # Class of executed instruction
system.cpu1.op_class::MemRead               191704372      8.36%     94.88% # Class of executed instruction
system.cpu1.op_class::MemWrite               66492155      2.90%     97.78% # Class of executed instruction
system.cpu1.op_class::FloatMemRead           42674966      1.86%     99.64% # Class of executed instruction
system.cpu1.op_class::FloatMemWrite           8248695      0.36%    100.00% # Class of executed instruction
system.cpu1.op_class::IprAccess                     0      0.00%    100.00% # Class of executed instruction
system.cpu1.op_class::InstPrefetch                  0      0.00%    100.00% # Class of executed instruction
system.cpu1.op_class::total                2292403603                       # Class of executed instruction
system.cpu1.workload.numSyscalls                 2339                       # Number of system calls
system.membus.snoop_filter.hit_multi_requests            0                       # Number of requests hitting in the snoop filter with multiple (>1) holders of the requested data.
system.membus.snoop_filter.hit_multi_snoops            0                       # Number of snoops hitting in the snoop filter with multiple (>1) holders of the requested data.
system.membus.snoop_filter.hit_single_requests      1085798                       # Number of requests hitting in the snoop filter with a single holder of the requested data.
system.membus.snoop_filter.hit_single_snoops            0                       # Number of snoops hitting in the snoop filter with a single holder of the requested data.
system.membus.snoop_filter.tot_requests       2434564                       # Total number of requests made to the snoop filter.
system.membus.snoop_filter.tot_snoops               0                       # Total number of snoops made to the snoop filter.
system.tol2bus.snoop_filter.hit_multi_requests            0                       # Number of requests hitting in the snoop filter with multiple (>1) holders of the requested data.
system.tol2bus.snoop_filter.hit_multi_snoops            0                       # Number of snoops hitting in the snoop filter with multiple (>1) holders of the requested data.
system.tol2bus.snoop_filter.hit_single_requests     88282790                       # Number of requests hitting in the snoop filter with a single holder of the requested data.
system.tol2bus.snoop_filter.hit_single_snoops         1805                       # Number of snoops hitting in the snoop filter with a single holder of the requested data.
system.tol2bus.snoop_filter.tot_requests    176566539                       # Total number of requests made to the snoop filter.
system.tol2bus.snoop_filter.tot_snoops           1805                       # Total number of snoops made to the snoop filter.
system.membus.pwrStateResidencyTicks::UNDEFINED 2070396716148                       # Cumulative time (in ticks) in various power states
system.membus.trans_dist::ReadResp             565315                       # Transaction distribution
system.membus.trans_dist::WritebackDirty       654214                       # Transaction distribution
system.membus.trans_dist::CleanEvict           431584                       # Transaction distribution
system.membus.trans_dist::ReadExReq            783451                       # Transaction distribution
system.membus.trans_dist::ReadExResp           783451                       # Transaction distribution
system.membus.trans_dist::ReadSharedReq        565315                       # Transaction distribution
system.membus.pkt_count_system.l2.mem_side::system.mem_ctrls.port      3783330                       # Packet count per connected master and slave (bytes)
system.membus.pkt_count_system.l2.mem_side::total      3783330                       # Packet count per connected master and slave (bytes)
system.membus.pkt_count::total                3783330                       # Packet count per connected master and slave (bytes)
system.membus.pkt_size_system.l2.mem_side::system.mem_ctrls.port    128190720                       # Cumulative packet size per connected master and slave (bytes)
system.membus.pkt_size_system.l2.mem_side::total    128190720                       # Cumulative packet size per connected master and slave (bytes)
system.membus.pkt_size::total               128190720                       # Cumulative packet size per connected master and slave (bytes)
system.membus.snoops                                0                       # Total snoops (count)
system.membus.snoopTraffic                          0                       # Total snoop traffic (bytes)
system.membus.snoop_fanout::samples           1348766                       # Request fanout histogram
system.membus.snoop_fanout::mean                    0                       # Request fanout histogram
system.membus.snoop_fanout::stdev                   0                       # Request fanout histogram
system.membus.snoop_fanout::underflows              0      0.00%      0.00% # Request fanout histogram
system.membus.snoop_fanout::0                 1348766    100.00%    100.00% # Request fanout histogram
system.membus.snoop_fanout::1                       0      0.00%    100.00% # Request fanout histogram
system.membus.snoop_fanout::overflows               0      0.00%    100.00% # Request fanout histogram
system.membus.snoop_fanout::min_value               0                       # Request fanout histogram
system.membus.snoop_fanout::max_value               0                       # Request fanout histogram
system.membus.snoop_fanout::total             1348766                       # Request fanout histogram
system.membus.reqLayer4.occupancy          6512740458                       # Layer occupancy (ticks)
system.membus.reqLayer4.utilization               0.3                       # Layer utilization (%)
system.membus.respLayer1.occupancy         7219147345                       # Layer occupancy (ticks)
system.membus.respLayer1.utilization              0.3                       # Layer utilization (%)
system.voltage_domain.voltage                       1                       # Voltage in Volts
system.clk_domain.clock                          1000                       # Clock period in ticks
system.cpu0.numPwrStateTransitions                  1                       # Number of power state transitions
system.cpu0.pwrStateResidencyTicks::ON   2070396716148                       # Cumulative time (in ticks) in various power states
system.cpu0.icache.pwrStateResidencyTicks::UNDEFINED 2070396716148                       # Cumulative time (in ticks) in various power states
system.cpu0.icache.demand_hits::.cpu0.inst     38901902                       # number of demand (read+write) hits
system.cpu0.icache.demand_hits::total        38901902                       # number of demand (read+write) hits
system.cpu0.icache.overall_hits::.cpu0.inst     38901902                       # number of overall hits
system.cpu0.icache.overall_hits::total       38901902                       # number of overall hits
system.cpu0.icache.demand_misses::.cpu0.inst          449                       # number of demand (read+write) misses
system.cpu0.icache.demand_misses::total           449                       # number of demand (read+write) misses
system.cpu0.icache.overall_misses::.cpu0.inst          449                       # number of overall misses
system.cpu0.icache.overall_misses::total          449                       # number of overall misses
system.cpu0.icache.demand_miss_latency::.cpu0.inst     38377251                       # number of demand (read+write) miss cycles
system.cpu0.icache.demand_miss_latency::total     38377251                       # number of demand (read+write) miss cycles
system.cpu0.icache.overall_miss_latency::.cpu0.inst     38377251                       # number of overall miss cycles
system.cpu0.icache.overall_miss_latency::total     38377251                       # number of overall miss cycles
system.cpu0.icache.demand_accesses::.cpu0.inst     38902351                       # number of demand (read+write) accesses
system.cpu0.icache.demand_accesses::total     38902351                       # number of demand (read+write) accesses
system.cpu0.icache.overall_accesses::.cpu0.inst     38902351                       # number of overall (read+write) accesses
system.cpu0.icache.overall_accesses::total     38902351                       # number of overall (read+write) accesses
system.cpu0.icache.demand_miss_rate::.cpu0.inst     0.000012                       # miss rate for demand accesses
system.cpu0.icache.demand_miss_rate::total     0.000012                       # miss rate for demand accesses
system.cpu0.icache.overall_miss_rate::.cpu0.inst     0.000012                       # miss rate for overall accesses
system.cpu0.icache.overall_miss_rate::total     0.000012                       # miss rate for overall accesses
system.cpu0.icache.demand_avg_miss_latency::.cpu0.inst 85472.719376                       # average overall miss latency
system.cpu0.icache.demand_avg_miss_latency::total 85472.719376                       # average overall miss latency
system.cpu0.icache.overall_avg_miss_latency::.cpu0.inst 85472.719376                       # average overall miss latency
system.cpu0.icache.overall_avg_miss_latency::total 85472.719376                       # average overall miss latency
system.cpu0.icache.blocked_cycles::no_mshrs            0                       # number of cycles access was blocked
system.cpu0.icache.blocked_cycles::no_targets            0                       # number of cycles access was blocked
system.cpu0.icache.blocked::no_mshrs                0                       # number of cycles access was blocked
system.cpu0.icache.blocked::no_targets              0                       # number of cycles access was blocked
system.cpu0.icache.avg_blocked_cycles::no_mshrs          nan                       # average number of cycles each access was blocked
system.cpu0.icache.avg_blocked_cycles::no_targets          nan                       # average number of cycles each access was blocked
system.cpu0.icache.writebacks::.writebacks           18                       # number of writebacks
system.cpu0.icache.writebacks::total               18                       # number of writebacks
system.cpu0.icache.demand_mshr_misses::.cpu0.inst          449                       # number of demand (read+write) MSHR misses
system.cpu0.icache.demand_mshr_misses::total          449                       # number of demand (read+write) MSHR misses
system.cpu0.icache.overall_mshr_misses::.cpu0.inst          449                       # number of overall MSHR misses
system.cpu0.icache.overall_mshr_misses::total          449                       # number of overall MSHR misses
system.cpu0.icache.demand_mshr_miss_latency::.cpu0.inst     38078217                       # number of demand (read+write) MSHR miss cycles
system.cpu0.icache.demand_mshr_miss_latency::total     38078217                       # number of demand (read+write) MSHR miss cycles
system.cpu0.icache.overall_mshr_miss_latency::.cpu0.inst     38078217                       # number of overall MSHR miss cycles
system.cpu0.icache.overall_mshr_miss_latency::total     38078217                       # number of overall MSHR miss cycles
system.cpu0.icache.demand_mshr_miss_rate::.cpu0.inst     0.000012                       # mshr miss rate for demand accesses
system.cpu0.icache.demand_mshr_miss_rate::total     0.000012                       # mshr miss rate for demand accesses
system.cpu0.icache.overall_mshr_miss_rate::.cpu0.inst     0.000012                       # mshr miss rate for overall accesses
system.cpu0.icache.overall_mshr_miss_rate::total     0.000012                       # mshr miss rate for overall accesses
system.cpu0.icache.demand_avg_mshr_miss_latency::.cpu0.inst 84806.719376                       # average overall mshr miss latency
system.cpu0.icache.demand_avg_mshr_miss_latency::total 84806.719376                       # average overall mshr miss latency
system.cpu0.icache.overall_avg_mshr_miss_latency::.cpu0.inst 84806.719376                       # average overall mshr miss latency
system.cpu0.icache.overall_avg_mshr_miss_latency::total 84806.719376                       # average overall mshr miss latency
system.cpu0.icache.replacements                    18                       # number of replacements
system.cpu0.icache.ReadReq_hits::.cpu0.inst     38901902                       # number of ReadReq hits
system.cpu0.icache.ReadReq_hits::total       38901902                       # number of ReadReq hits
system.cpu0.icache.ReadReq_misses::.cpu0.inst          449                       # number of ReadReq misses
system.cpu0.icache.ReadReq_misses::total          449                       # number of ReadReq misses
system.cpu0.icache.ReadReq_miss_latency::.cpu0.inst     38377251                       # number of ReadReq miss cycles
system.cpu0.icache.ReadReq_miss_latency::total     38377251                       # number of ReadReq miss cycles
system.cpu0.icache.ReadReq_accesses::.cpu0.inst     38902351                       # number of ReadReq accesses(hits+misses)
system.cpu0.icache.ReadReq_accesses::total     38902351                       # number of ReadReq accesses(hits+misses)
system.cpu0.icache.ReadReq_miss_rate::.cpu0.inst     0.000012                       # miss rate for ReadReq accesses
system.cpu0.icache.ReadReq_miss_rate::total     0.000012                       # miss rate for ReadReq accesses
system.cpu0.icache.ReadReq_avg_miss_latency::.cpu0.inst 85472.719376                       # average ReadReq miss latency
system.cpu0.icache.ReadReq_avg_miss_latency::total 85472.719376                       # average ReadReq miss latency
system.cpu0.icache.ReadReq_mshr_misses::.cpu0.inst          449                       # number of ReadReq MSHR misses
system.cpu0.icache.ReadReq_mshr_misses::total          449                       # number of ReadReq MSHR misses
system.cpu0.icache.ReadReq_mshr_miss_latency::.cpu0.inst     38078217                       # number of ReadReq MSHR miss cycles
system.cpu0.icache.ReadReq_mshr_miss_latency::total     38078217                       # number of ReadReq MSHR miss cycles
system.cpu0.icache.ReadReq_mshr_miss_rate::.cpu0.inst     0.000012                       # mshr miss rate for ReadReq accesses
system.cpu0.icache.ReadReq_mshr_miss_rate::total     0.000012                       # mshr miss rate for ReadReq accesses
system.cpu0.icache.ReadReq_avg_mshr_miss_latency::.cpu0.inst 84806.719376                       # average ReadReq mshr miss latency
system.cpu0.icache.ReadReq_avg_mshr_miss_latency::total 84806.719376                       # average ReadReq mshr miss latency
system.cpu0.icache.tags.pwrStateResidencyTicks::UNDEFINED 2070396716148                       # Cumulative time (in ticks) in various power states
system.cpu0.icache.tags.tagsinuse          428.282848                       # Cycle average of tags in use
system.cpu0.icache.tags.total_refs           38902351                       # Total number of references to valid blocks.
system.cpu0.icache.tags.sampled_refs              449                       # Sample count of references to valid blocks.
system.cpu0.icache.tags.avg_refs         86642.207127                       # Average number of references to valid blocks.
system.cpu0.icache.tags.warmup_cycle            83250                       # Cycle when the warmup percentage was hit.
system.cpu0.icache.tags.occ_blocks::.cpu0.inst   428.282848                       # Average occupied blocks per requestor
system.cpu0.icache.tags.occ_percent::.cpu0.inst     0.836490                       # Average percentage of cache occupancy
system.cpu0.icache.tags.occ_percent::total     0.836490                       # Average percentage of cache occupancy
system.cpu0.icache.tags.occ_task_id_blocks::1024          431                       # Occupied blocks per task id
system.cpu0.icache.tags.age_task_id_blocks_1024::4          431                       # Occupied blocks per task id
system.cpu0.icache.tags.occ_task_id_percent::1024     0.841797                       # Percentage of cache occupancy per task id
system.cpu0.icache.tags.tag_accesses        311219257                       # Number of tag accesses
system.cpu0.icache.tags.data_accesses       311219257                       # Number of data accesses
system.cpu0.icache.tags.repl_invalid                0                       # Number of initial replacements
system.cpu0.icache.tags.repl_valid_tag              0                       # Number of local replacements
system.cpu0.icache.tags.repl_valid_data             0                       # Number of global replacements
system.cpu0.dtb.walker.pwrStateResidencyTicks::UNDEFINED 2070396716148                       # Cumulative time (in ticks) in various power states
system.cpu0.interrupts.clk_domain.clock          5328                       # Clock period in ticks
system.cpu0.itb_walker_cache.pwrStateResidencyTicks::UNDEFINED 2070396716148                       # Cumulative time (in ticks) in various power states
system.cpu0.itb_walker_cache.blocked_cycles::no_mshrs            0                       # number of cycles access was blocked
system.cpu0.itb_walker_cache.blocked_cycles::no_targets            0                       # number of cycles access was blocked
system.cpu0.itb_walker_cache.blocked::no_mshrs            0                       # number of cycles access was blocked
system.cpu0.itb_walker_cache.blocked::no_targets            0                       # number of cycles access was blocked
system.cpu0.itb_walker_cache.avg_blocked_cycles::no_mshrs          nan                       # average number of cycles each access was blocked
system.cpu0.itb_walker_cache.avg_blocked_cycles::no_targets          nan                       # average number of cycles each access was blocked
system.cpu0.itb_walker_cache.replacements            0                       # number of replacements
system.cpu0.itb_walker_cache.tags.pwrStateResidencyTicks::UNDEFINED 2070396716148                       # Cumulative time (in ticks) in various power states
system.cpu0.itb_walker_cache.tags.tagsinuse            0                       # Cycle average of tags in use
system.cpu0.itb_walker_cache.tags.total_refs            0                       # Total number of references to valid blocks.
system.cpu0.itb_walker_cache.tags.sampled_refs            0                       # Sample count of references to valid blocks.
system.cpu0.itb_walker_cache.tags.avg_refs          nan                       # Average number of references to valid blocks.
system.cpu0.itb_walker_cache.tags.warmup_cycle            0                       # Cycle when the warmup percentage was hit.
system.cpu0.itb_walker_cache.tags.tag_accesses            0                       # Number of tag accesses
system.cpu0.itb_walker_cache.tags.data_accesses            0                       # Number of data accesses
system.cpu0.itb_walker_cache.tags.repl_invalid            0                       # Number of initial replacements
system.cpu0.itb_walker_cache.tags.repl_valid_tag            0                       # Number of local replacements
system.cpu0.itb_walker_cache.tags.repl_valid_data            0                       # Number of global replacements
system.cpu0.itb.walker.pwrStateResidencyTicks::UNDEFINED 2070396716148                       # Cumulative time (in ticks) in various power states
system.cpu0.dtb_walker_cache.pwrStateResidencyTicks::UNDEFINED 2070396716148                       # Cumulative time (in ticks) in various power states
system.cpu0.dtb_walker_cache.blocked_cycles::no_mshrs            0                       # number of cycles access was blocked
system.cpu0.dtb_walker_cache.blocked_cycles::no_targets            0                       # number of cycles access was blocked
system.cpu0.dtb_walker_cache.blocked::no_mshrs            0                       # number of cycles access was blocked
system.cpu0.dtb_walker_cache.blocked::no_targets            0                       # number of cycles access was blocked
system.cpu0.dtb_walker_cache.avg_blocked_cycles::no_mshrs          nan                       # average number of cycles each access was blocked
system.cpu0.dtb_walker_cache.avg_blocked_cycles::no_targets          nan                       # average number of cycles each access was blocked
system.cpu0.dtb_walker_cache.replacements            0                       # number of replacements
system.cpu0.dtb_walker_cache.tags.pwrStateResidencyTicks::UNDEFINED 2070396716148                       # Cumulative time (in ticks) in various power states
system.cpu0.dtb_walker_cache.tags.tagsinuse            0                       # Cycle average of tags in use
system.cpu0.dtb_walker_cache.tags.total_refs            0                       # Total number of references to valid blocks.
system.cpu0.dtb_walker_cache.tags.sampled_refs            0                       # Sample count of references to valid blocks.
system.cpu0.dtb_walker_cache.tags.avg_refs          nan                       # Average number of references to valid blocks.
system.cpu0.dtb_walker_cache.tags.warmup_cycle            0                       # Cycle when the warmup percentage was hit.
system.cpu0.dtb_walker_cache.tags.tag_accesses            0                       # Number of tag accesses
system.cpu0.dtb_walker_cache.tags.data_accesses            0                       # Number of data accesses
system.cpu0.dtb_walker_cache.tags.repl_invalid            0                       # Number of initial replacements
system.cpu0.dtb_walker_cache.tags.repl_valid_tag            0                       # Number of local replacements
system.cpu0.dtb_walker_cache.tags.repl_valid_data            0                       # Number of global replacements
system.cpu0.dcache.pwrStateResidencyTicks::UNDEFINED 2070396716148                       # Cumulative time (in ticks) in various power states
system.cpu0.dcache.demand_hits::.cpu0.data     16322542                       # number of demand (read+write) hits
system.cpu0.dcache.demand_hits::total        16322542                       # number of demand (read+write) hits
system.cpu0.dcache.overall_hits::.cpu0.data     16322542                       # number of overall hits
system.cpu0.dcache.overall_hits::total       16322542                       # number of overall hits
system.cpu0.dcache.demand_misses::.cpu0.data       347916                       # number of demand (read+write) misses
system.cpu0.dcache.demand_misses::total        347916                       # number of demand (read+write) misses
system.cpu0.dcache.overall_misses::.cpu0.data       347916                       # number of overall misses
system.cpu0.dcache.overall_misses::total       347916                       # number of overall misses
system.cpu0.dcache.demand_miss_latency::.cpu0.data  30842218575                       # number of demand (read+write) miss cycles
system.cpu0.dcache.demand_miss_latency::total  30842218575                       # number of demand (read+write) miss cycles
system.cpu0.dcache.overall_miss_latency::.cpu0.data  30842218575                       # number of overall miss cycles
system.cpu0.dcache.overall_miss_latency::total  30842218575                       # number of overall miss cycles
system.cpu0.dcache.demand_accesses::.cpu0.data     16670458                       # number of demand (read+write) accesses
system.cpu0.dcache.demand_accesses::total     16670458                       # number of demand (read+write) accesses
system.cpu0.dcache.overall_accesses::.cpu0.data     16670458                       # number of overall (read+write) accesses
system.cpu0.dcache.overall_accesses::total     16670458                       # number of overall (read+write) accesses
system.cpu0.dcache.demand_miss_rate::.cpu0.data     0.020870                       # miss rate for demand accesses
system.cpu0.dcache.demand_miss_rate::total     0.020870                       # miss rate for demand accesses
system.cpu0.dcache.overall_miss_rate::.cpu0.data     0.020870                       # miss rate for overall accesses
system.cpu0.dcache.overall_miss_rate::total     0.020870                       # miss rate for overall accesses
system.cpu0.dcache.demand_avg_miss_latency::.cpu0.data 88648.462775                       # average overall miss latency
system.cpu0.dcache.demand_avg_miss_latency::total 88648.462775                       # average overall miss latency
system.cpu0.dcache.overall_avg_miss_latency::.cpu0.data 88648.462775                       # average overall miss latency
system.cpu0.dcache.overall_avg_miss_latency::total 88648.462775                       # average overall miss latency
system.cpu0.dcache.blocked_cycles::no_mshrs            0                       # number of cycles access was blocked
system.cpu0.dcache.blocked_cycles::no_targets            0                       # number of cycles access was blocked
system.cpu0.dcache.blocked::no_mshrs                0                       # number of cycles access was blocked
system.cpu0.dcache.blocked::no_targets              0                       # number of cycles access was blocked
system.cpu0.dcache.avg_blocked_cycles::no_mshrs          nan                       # average number of cycles each access was blocked
system.cpu0.dcache.avg_blocked_cycles::no_targets          nan                       # average number of cycles each access was blocked
system.cpu0.dcache.writebacks::.writebacks          517                       # number of writebacks
system.cpu0.dcache.writebacks::total              517                       # number of writebacks
system.cpu0.dcache.demand_mshr_misses::.cpu0.data       347916                       # number of demand (read+write) MSHR misses
system.cpu0.dcache.demand_mshr_misses::total       347916                       # number of demand (read+write) MSHR misses
system.cpu0.dcache.overall_mshr_misses::.cpu0.data       347916                       # number of overall MSHR misses
system.cpu0.dcache.overall_mshr_misses::total       347916                       # number of overall MSHR misses
system.cpu0.dcache.demand_mshr_miss_latency::.cpu0.data  30610506519                       # number of demand (read+write) MSHR miss cycles
system.cpu0.dcache.demand_mshr_miss_latency::total  30610506519                       # number of demand (read+write) MSHR miss cycles
system.cpu0.dcache.overall_mshr_miss_latency::.cpu0.data  30610506519                       # number of overall MSHR miss cycles
system.cpu0.dcache.overall_mshr_miss_latency::total  30610506519                       # number of overall MSHR miss cycles
system.cpu0.dcache.demand_mshr_miss_rate::.cpu0.data     0.020870                       # mshr miss rate for demand accesses
system.cpu0.dcache.demand_mshr_miss_rate::total     0.020870                       # mshr miss rate for demand accesses
system.cpu0.dcache.overall_mshr_miss_rate::.cpu0.data     0.020870                       # mshr miss rate for overall accesses
system.cpu0.dcache.overall_mshr_miss_rate::total     0.020870                       # mshr miss rate for overall accesses
system.cpu0.dcache.demand_avg_mshr_miss_latency::.cpu0.data 87982.462775                       # average overall mshr miss latency
system.cpu0.dcache.demand_avg_mshr_miss_latency::total 87982.462775                       # average overall mshr miss latency
system.cpu0.dcache.overall_avg_mshr_miss_latency::.cpu0.data 87982.462775                       # average overall mshr miss latency
system.cpu0.dcache.overall_avg_mshr_miss_latency::total 87982.462775                       # average overall mshr miss latency
system.cpu0.dcache.replacements                347908                       # number of replacements
system.cpu0.dcache.ReadReq_hits::.cpu0.data     10765403                       # number of ReadReq hits
system.cpu0.dcache.ReadReq_hits::total       10765403                       # number of ReadReq hits
system.cpu0.dcache.ReadReq_misses::.cpu0.data       347660                       # number of ReadReq misses
system.cpu0.dcache.ReadReq_misses::total       347660                       # number of ReadReq misses
system.cpu0.dcache.ReadReq_miss_latency::.cpu0.data  30830445027                       # number of ReadReq miss cycles
system.cpu0.dcache.ReadReq_miss_latency::total  30830445027                       # number of ReadReq miss cycles
system.cpu0.dcache.ReadReq_accesses::.cpu0.data     11113063                       # number of ReadReq accesses(hits+misses)
system.cpu0.dcache.ReadReq_accesses::total     11113063                       # number of ReadReq accesses(hits+misses)
system.cpu0.dcache.ReadReq_miss_rate::.cpu0.data     0.031284                       # miss rate for ReadReq accesses
system.cpu0.dcache.ReadReq_miss_rate::total     0.031284                       # miss rate for ReadReq accesses
system.cpu0.dcache.ReadReq_avg_miss_latency::.cpu0.data 88679.874093                       # average ReadReq miss latency
system.cpu0.dcache.ReadReq_avg_miss_latency::total 88679.874093                       # average ReadReq miss latency
system.cpu0.dcache.ReadReq_mshr_misses::.cpu0.data       347660                       # number of ReadReq MSHR misses
system.cpu0.dcache.ReadReq_mshr_misses::total       347660                       # number of ReadReq MSHR misses
system.cpu0.dcache.ReadReq_mshr_miss_latency::.cpu0.data  30598903467                       # number of ReadReq MSHR miss cycles
system.cpu0.dcache.ReadReq_mshr_miss_latency::total  30598903467                       # number of ReadReq MSHR miss cycles
system.cpu0.dcache.ReadReq_mshr_miss_rate::.cpu0.data     0.031284                       # mshr miss rate for ReadReq accesses
system.cpu0.dcache.ReadReq_mshr_miss_rate::total     0.031284                       # mshr miss rate for ReadReq accesses
system.cpu0.dcache.ReadReq_avg_mshr_miss_latency::.cpu0.data 88013.874093                       # average ReadReq mshr miss latency
system.cpu0.dcache.ReadReq_avg_mshr_miss_latency::total 88013.874093                       # average ReadReq mshr miss latency
system.cpu0.dcache.WriteReq_hits::.cpu0.data      5557139                       # number of WriteReq hits
system.cpu0.dcache.WriteReq_hits::total       5557139                       # number of WriteReq hits
system.cpu0.dcache.WriteReq_misses::.cpu0.data          256                       # number of WriteReq misses
system.cpu0.dcache.WriteReq_misses::total          256                       # number of WriteReq misses
system.cpu0.dcache.WriteReq_miss_latency::.cpu0.data     11773548                       # number of WriteReq miss cycles
system.cpu0.dcache.WriteReq_miss_latency::total     11773548                       # number of WriteReq miss cycles
system.cpu0.dcache.WriteReq_accesses::.cpu0.data      5557395                       # number of WriteReq accesses(hits+misses)
system.cpu0.dcache.WriteReq_accesses::total      5557395                       # number of WriteReq accesses(hits+misses)
system.cpu0.dcache.WriteReq_miss_rate::.cpu0.data     0.000046                       # miss rate for WriteReq accesses
system.cpu0.dcache.WriteReq_miss_rate::total     0.000046                       # miss rate for WriteReq accesses
system.cpu0.dcache.WriteReq_avg_miss_latency::.cpu0.data 45990.421875                       # average WriteReq miss latency
system.cpu0.dcache.WriteReq_avg_miss_latency::total 45990.421875                       # average WriteReq miss latency
system.cpu0.dcache.WriteReq_mshr_misses::.cpu0.data          256                       # number of WriteReq MSHR misses
system.cpu0.dcache.WriteReq_mshr_misses::total          256                       # number of WriteReq MSHR misses
system.cpu0.dcache.WriteReq_mshr_miss_latency::.cpu0.data     11603052                       # number of WriteReq MSHR miss cycles
system.cpu0.dcache.WriteReq_mshr_miss_latency::total     11603052                       # number of WriteReq MSHR miss cycles
system.cpu0.dcache.WriteReq_mshr_miss_rate::.cpu0.data     0.000046                       # mshr miss rate for WriteReq accesses
system.cpu0.dcache.WriteReq_mshr_miss_rate::total     0.000046                       # mshr miss rate for WriteReq accesses
system.cpu0.dcache.WriteReq_avg_mshr_miss_latency::.cpu0.data 45324.421875                       # average WriteReq mshr miss latency
system.cpu0.dcache.WriteReq_avg_mshr_miss_latency::total 45324.421875                       # average WriteReq mshr miss latency
system.cpu0.dcache.tags.pwrStateResidencyTicks::UNDEFINED 2070396716148                       # Cumulative time (in ticks) in various power states
system.cpu0.dcache.tags.tagsinuse            7.999997                       # Cycle average of tags in use
system.cpu0.dcache.tags.total_refs           16670458                       # Total number of references to valid blocks.
system.cpu0.dcache.tags.sampled_refs           347916                       # Sample count of references to valid blocks.
system.cpu0.dcache.tags.avg_refs            47.915181                       # Average number of references to valid blocks.
system.cpu0.dcache.tags.warmup_cycle           166167                       # Cycle when the warmup percentage was hit.
system.cpu0.dcache.tags.occ_blocks::.cpu0.data     7.999997                       # Average occupied blocks per requestor
system.cpu0.dcache.tags.occ_percent::.cpu0.data     1.000000                       # Average percentage of cache occupancy
system.cpu0.dcache.tags.occ_percent::total     1.000000                       # Average percentage of cache occupancy
system.cpu0.dcache.tags.occ_task_id_blocks::1024            8                       # Occupied blocks per task id
system.cpu0.dcache.tags.age_task_id_blocks_1024::4            8                       # Occupied blocks per task id
system.cpu0.dcache.tags.occ_task_id_percent::1024            1                       # Percentage of cache occupancy per task id
system.cpu0.dcache.tags.tag_accesses        133711580                       # Number of tag accesses
system.cpu0.dcache.tags.data_accesses       133711580                       # Number of data accesses
system.cpu0.dcache.tags.repl_invalid                0                       # Number of initial replacements
system.cpu0.dcache.tags.repl_valid_tag              0                       # Number of local replacements
system.cpu0.dcache.tags.repl_valid_data             0                       # Number of global replacements
system.cpu1.numPwrStateTransitions                  1                       # Number of power state transitions
system.cpu1.pwrStateResidencyTicks::ON   2070396716148                       # Cumulative time (in ticks) in various power states
system.cpu1.icache.pwrStateResidencyTicks::UNDEFINED 2070396716148                       # Cumulative time (in ticks) in various power states
system.cpu1.icache.demand_hits::.cpu1.inst   1273740323                       # number of demand (read+write) hits
system.cpu1.icache.demand_hits::total      1273740323                       # number of demand (read+write) hits
system.cpu1.icache.overall_hits::.cpu1.inst   1273740323                       # number of overall hits
system.cpu1.icache.overall_hits::total     1273740323                       # number of overall hits
system.cpu1.icache.demand_misses::.cpu1.inst        17161                       # number of demand (read+write) misses
system.cpu1.icache.demand_misses::total         17161                       # number of demand (read+write) misses
system.cpu1.icache.overall_misses::.cpu1.inst        17161                       # number of overall misses
system.cpu1.icache.overall_misses::total        17161                       # number of overall misses
system.cpu1.icache.demand_miss_latency::.cpu1.inst    997026642                       # number of demand (read+write) miss cycles
system.cpu1.icache.demand_miss_latency::total    997026642                       # number of demand (read+write) miss cycles
system.cpu1.icache.overall_miss_latency::.cpu1.inst    997026642                       # number of overall miss cycles
system.cpu1.icache.overall_miss_latency::total    997026642                       # number of overall miss cycles
system.cpu1.icache.demand_accesses::.cpu1.inst   1273757484                       # number of demand (read+write) accesses
system.cpu1.icache.demand_accesses::total   1273757484                       # number of demand (read+write) accesses
system.cpu1.icache.overall_accesses::.cpu1.inst   1273757484                       # number of overall (read+write) accesses
system.cpu1.icache.overall_accesses::total   1273757484                       # number of overall (read+write) accesses
system.cpu1.icache.demand_miss_rate::.cpu1.inst     0.000013                       # miss rate for demand accesses
system.cpu1.icache.demand_miss_rate::total     0.000013                       # miss rate for demand accesses
system.cpu1.icache.overall_miss_rate::.cpu1.inst     0.000013                       # miss rate for overall accesses
system.cpu1.icache.overall_miss_rate::total     0.000013                       # miss rate for overall accesses
system.cpu1.icache.demand_avg_miss_latency::.cpu1.inst 58098.399977                       # average overall miss latency
system.cpu1.icache.demand_avg_miss_latency::total 58098.399977                       # average overall miss latency
system.cpu1.icache.overall_avg_miss_latency::.cpu1.inst 58098.399977                       # average overall miss latency
system.cpu1.icache.overall_avg_miss_latency::total 58098.399977                       # average overall miss latency
system.cpu1.icache.blocked_cycles::no_mshrs            0                       # number of cycles access was blocked
system.cpu1.icache.blocked_cycles::no_targets            0                       # number of cycles access was blocked
system.cpu1.icache.blocked::no_mshrs                0                       # number of cycles access was blocked
system.cpu1.icache.blocked::no_targets              0                       # number of cycles access was blocked
system.cpu1.icache.avg_blocked_cycles::no_mshrs          nan                       # average number of cycles each access was blocked
system.cpu1.icache.avg_blocked_cycles::no_targets          nan                       # average number of cycles each access was blocked
system.cpu1.icache.writebacks::.writebacks        16649                       # number of writebacks
system.cpu1.icache.writebacks::total            16649                       # number of writebacks
system.cpu1.icache.demand_mshr_misses::.cpu1.inst        17161                       # number of demand (read+write) MSHR misses
system.cpu1.icache.demand_mshr_misses::total        17161                       # number of demand (read+write) MSHR misses
system.cpu1.icache.overall_mshr_misses::.cpu1.inst        17161                       # number of overall MSHR misses
system.cpu1.icache.overall_mshr_misses::total        17161                       # number of overall MSHR misses
system.cpu1.icache.demand_mshr_miss_latency::.cpu1.inst    985597416                       # number of demand (read+write) MSHR miss cycles
system.cpu1.icache.demand_mshr_miss_latency::total    985597416                       # number of demand (read+write) MSHR miss cycles
system.cpu1.icache.overall_mshr_miss_latency::.cpu1.inst    985597416                       # number of overall MSHR miss cycles
system.cpu1.icache.overall_mshr_miss_latency::total    985597416                       # number of overall MSHR miss cycles
system.cpu1.icache.demand_mshr_miss_rate::.cpu1.inst     0.000013                       # mshr miss rate for demand accesses
system.cpu1.icache.demand_mshr_miss_rate::total     0.000013                       # mshr miss rate for demand accesses
system.cpu1.icache.overall_mshr_miss_rate::.cpu1.inst     0.000013                       # mshr miss rate for overall accesses
system.cpu1.icache.overall_mshr_miss_rate::total     0.000013                       # mshr miss rate for overall accesses
system.cpu1.icache.demand_avg_mshr_miss_latency::.cpu1.inst 57432.399977                       # average overall mshr miss latency
system.cpu1.icache.demand_avg_mshr_miss_latency::total 57432.399977                       # average overall mshr miss latency
system.cpu1.icache.overall_avg_mshr_miss_latency::.cpu1.inst 57432.399977                       # average overall mshr miss latency
system.cpu1.icache.overall_avg_mshr_miss_latency::total 57432.399977                       # average overall mshr miss latency
system.cpu1.icache.replacements                 16649                       # number of replacements
system.cpu1.icache.ReadReq_hits::.cpu1.inst   1273740323                       # number of ReadReq hits
system.cpu1.icache.ReadReq_hits::total     1273740323                       # number of ReadReq hits
system.cpu1.icache.ReadReq_misses::.cpu1.inst        17161                       # number of ReadReq misses
system.cpu1.icache.ReadReq_misses::total        17161                       # number of ReadReq misses
system.cpu1.icache.ReadReq_miss_latency::.cpu1.inst    997026642                       # number of ReadReq miss cycles
system.cpu1.icache.ReadReq_miss_latency::total    997026642                       # number of ReadReq miss cycles
system.cpu1.icache.ReadReq_accesses::.cpu1.inst   1273757484                       # number of ReadReq accesses(hits+misses)
system.cpu1.icache.ReadReq_accesses::total   1273757484                       # number of ReadReq accesses(hits+misses)
system.cpu1.icache.ReadReq_miss_rate::.cpu1.inst     0.000013                       # miss rate for ReadReq accesses
system.cpu1.icache.ReadReq_miss_rate::total     0.000013                       # miss rate for ReadReq accesses
system.cpu1.icache.ReadReq_avg_miss_latency::.cpu1.inst 58098.399977                       # average ReadReq miss latency
system.cpu1.icache.ReadReq_avg_miss_latency::total 58098.399977                       # average ReadReq miss latency
system.cpu1.icache.ReadReq_mshr_misses::.cpu1.inst        17161                       # number of ReadReq MSHR misses
system.cpu1.icache.ReadReq_mshr_misses::total        17161                       # number of ReadReq MSHR misses
system.cpu1.icache.ReadReq_mshr_miss_latency::.cpu1.inst    985597416                       # number of ReadReq MSHR miss cycles
system.cpu1.icache.ReadReq_mshr_miss_latency::total    985597416                       # number of ReadReq MSHR miss cycles
system.cpu1.icache.ReadReq_mshr_miss_rate::.cpu1.inst     0.000013                       # mshr miss rate for ReadReq accesses
system.cpu1.icache.ReadReq_mshr_miss_rate::total     0.000013                       # mshr miss rate for ReadReq accesses
system.cpu1.icache.ReadReq_avg_mshr_miss_latency::.cpu1.inst 57432.399977                       # average ReadReq mshr miss latency
system.cpu1.icache.ReadReq_avg_mshr_miss_latency::total 57432.399977                       # average ReadReq mshr miss latency
system.cpu1.icache.tags.pwrStateResidencyTicks::UNDEFINED 2070396716148                       # Cumulative time (in ticks) in various power states
system.cpu1.icache.tags.tagsinuse          511.986770                       # Cycle average of tags in use
system.cpu1.icache.tags.total_refs         1273757484                       # Total number of references to valid blocks.
system.cpu1.icache.tags.sampled_refs            17161                       # Sample count of references to valid blocks.
system.cpu1.icache.tags.avg_refs         74223.966202                       # Average number of references to valid blocks.
system.cpu1.icache.tags.warmup_cycle            88245                       # Cycle when the warmup percentage was hit.
system.cpu1.icache.tags.occ_blocks::.cpu1.inst   511.986770                       # Average occupied blocks per requestor
system.cpu1.icache.tags.occ_percent::.cpu1.inst     0.999974                       # Average percentage of cache occupancy
system.cpu1.icache.tags.occ_percent::total     0.999974                       # Average percentage of cache occupancy
system.cpu1.icache.tags.occ_task_id_blocks::1024          512                       # Occupied blocks per task id
system.cpu1.icache.tags.age_task_id_blocks_1024::3           12                       # Occupied blocks per task id
system.cpu1.icache.tags.age_task_id_blocks_1024::4          500                       # Occupied blocks per task id
system.cpu1.icache.tags.occ_task_id_percent::1024            1                       # Percentage of cache occupancy per task id
system.cpu1.icache.tags.tag_accesses      10190077033                       # Number of tag accesses
system.cpu1.icache.tags.data_accesses     10190077033                       # Number of data accesses
system.cpu1.icache.tags.repl_invalid                0                       # Number of initial replacements
system.cpu1.icache.tags.repl_valid_tag              0                       # Number of local replacements
system.cpu1.icache.tags.repl_valid_data             0                       # Number of global replacements
system.cpu1.dtb.walker.pwrStateResidencyTicks::UNDEFINED 2070396716148                       # Cumulative time (in ticks) in various power states
system.cpu1.interrupts.clk_domain.clock          5328                       # Clock period in ticks
system.cpu1.itb_walker_cache.pwrStateResidencyTicks::UNDEFINED 2070396716148                       # Cumulative time (in ticks) in various power states
system.cpu1.itb_walker_cache.blocked_cycles::no_mshrs            0                       # number of cycles access was blocked
system.cpu1.itb_walker_cache.blocked_cycles::no_targets            0                       # number of cycles access was blocked
system.cpu1.itb_walker_cache.blocked::no_mshrs            0                       # number of cycles access was blocked
system.cpu1.itb_walker_cache.blocked::no_targets            0                       # number of cycles access was blocked
system.cpu1.itb_walker_cache.avg_blocked_cycles::no_mshrs          nan                       # average number of cycles each access was blocked
system.cpu1.itb_walker_cache.avg_blocked_cycles::no_targets          nan                       # average number of cycles each access was blocked
system.cpu1.itb_walker_cache.replacements            0                       # number of replacements
system.cpu1.itb_walker_cache.tags.pwrStateResidencyTicks::UNDEFINED 2070396716148                       # Cumulative time (in ticks) in various power states
system.cpu1.itb_walker_cache.tags.tagsinuse            0                       # Cycle average of tags in use
system.cpu1.itb_walker_cache.tags.total_refs            0                       # Total number of references to valid blocks.
system.cpu1.itb_walker_cache.tags.sampled_refs            0                       # Sample count of references to valid blocks.
system.cpu1.itb_walker_cache.tags.avg_refs          nan                       # Average number of references to valid blocks.
system.cpu1.itb_walker_cache.tags.warmup_cycle            0                       # Cycle when the warmup percentage was hit.
system.cpu1.itb_walker_cache.tags.tag_accesses            0                       # Number of tag accesses
system.cpu1.itb_walker_cache.tags.data_accesses            0                       # Number of data accesses
system.cpu1.itb_walker_cache.tags.repl_invalid            0                       # Number of initial replacements
system.cpu1.itb_walker_cache.tags.repl_valid_tag            0                       # Number of local replacements
system.cpu1.itb_walker_cache.tags.repl_valid_data            0                       # Number of global replacements
system.cpu1.itb.walker.pwrStateResidencyTicks::UNDEFINED 2070396716148                       # Cumulative time (in ticks) in various power states
system.cpu1.dtb_walker_cache.pwrStateResidencyTicks::UNDEFINED 2070396716148                       # Cumulative time (in ticks) in various power states
system.cpu1.dtb_walker_cache.blocked_cycles::no_mshrs            0                       # number of cycles access was blocked
system.cpu1.dtb_walker_cache.blocked_cycles::no_targets            0                       # number of cycles access was blocked
system.cpu1.dtb_walker_cache.blocked::no_mshrs            0                       # number of cycles access was blocked
system.cpu1.dtb_walker_cache.blocked::no_targets            0                       # number of cycles access was blocked
system.cpu1.dtb_walker_cache.avg_blocked_cycles::no_mshrs          nan                       # average number of cycles each access was blocked
system.cpu1.dtb_walker_cache.avg_blocked_cycles::no_targets          nan                       # average number of cycles each access was blocked
system.cpu1.dtb_walker_cache.replacements            0                       # number of replacements
system.cpu1.dtb_walker_cache.tags.pwrStateResidencyTicks::UNDEFINED 2070396716148                       # Cumulative time (in ticks) in various power states
system.cpu1.dtb_walker_cache.tags.tagsinuse            0                       # Cycle average of tags in use
system.cpu1.dtb_walker_cache.tags.total_refs            0                       # Total number of references to valid blocks.
system.cpu1.dtb_walker_cache.tags.sampled_refs            0                       # Sample count of references to valid blocks.
system.cpu1.dtb_walker_cache.tags.avg_refs          nan                       # Average number of references to valid blocks.
system.cpu1.dtb_walker_cache.tags.warmup_cycle            0                       # Cycle when the warmup percentage was hit.
system.cpu1.dtb_walker_cache.tags.tag_accesses            0                       # Number of tag accesses
system.cpu1.dtb_walker_cache.tags.data_accesses            0                       # Number of data accesses
system.cpu1.dtb_walker_cache.tags.repl_invalid            0                       # Number of initial replacements
system.cpu1.dtb_walker_cache.tags.repl_valid_tag            0                       # Number of local replacements
system.cpu1.dtb_walker_cache.tags.repl_valid_data            0                       # Number of global replacements
system.cpu1.dcache.pwrStateResidencyTicks::UNDEFINED 2070396716148                       # Cumulative time (in ticks) in various power states
system.cpu1.dcache.demand_hits::.cpu1.data    223387985                       # number of demand (read+write) hits
system.cpu1.dcache.demand_hits::total       223387985                       # number of demand (read+write) hits
system.cpu1.dcache.overall_hits::.cpu1.data    223418752                       # number of overall hits
system.cpu1.dcache.overall_hits::total      223418752                       # number of overall hits
system.cpu1.dcache.demand_misses::.cpu1.data     87886875                       # number of demand (read+write) misses
system.cpu1.dcache.demand_misses::total      87886875                       # number of demand (read+write) misses
system.cpu1.dcache.overall_misses::.cpu1.data     87918800                       # number of overall misses
system.cpu1.dcache.overall_misses::total     87918800                       # number of overall misses
system.cpu1.dcache.demand_miss_latency::.cpu1.data 1079300891727                       # number of demand (read+write) miss cycles
system.cpu1.dcache.demand_miss_latency::total 1079300891727                       # number of demand (read+write) miss cycles
system.cpu1.dcache.overall_miss_latency::.cpu1.data 1079300891727                       # number of overall miss cycles
system.cpu1.dcache.overall_miss_latency::total 1079300891727                       # number of overall miss cycles
system.cpu1.dcache.demand_accesses::.cpu1.data    311274860                       # number of demand (read+write) accesses
system.cpu1.dcache.demand_accesses::total    311274860                       # number of demand (read+write) accesses
system.cpu1.dcache.overall_accesses::.cpu1.data    311337552                       # number of overall (read+write) accesses
system.cpu1.dcache.overall_accesses::total    311337552                       # number of overall (read+write) accesses
system.cpu1.dcache.demand_miss_rate::.cpu1.data     0.282345                       # miss rate for demand accesses
system.cpu1.dcache.demand_miss_rate::total     0.282345                       # miss rate for demand accesses
system.cpu1.dcache.overall_miss_rate::.cpu1.data     0.282391                       # miss rate for overall accesses
system.cpu1.dcache.overall_miss_rate::total     0.282391                       # miss rate for overall accesses
system.cpu1.dcache.demand_avg_miss_latency::.cpu1.data 12280.569672                       # average overall miss latency
system.cpu1.dcache.demand_avg_miss_latency::total 12280.569672                       # average overall miss latency
system.cpu1.dcache.overall_avg_miss_latency::.cpu1.data 12276.110362                       # average overall miss latency
system.cpu1.dcache.overall_avg_miss_latency::total 12276.110362                       # average overall miss latency
system.cpu1.dcache.blocked_cycles::no_mshrs            0                       # number of cycles access was blocked
system.cpu1.dcache.blocked_cycles::no_targets            0                       # number of cycles access was blocked
system.cpu1.dcache.blocked::no_mshrs                0                       # number of cycles access was blocked
system.cpu1.dcache.blocked::no_targets              0                       # number of cycles access was blocked
system.cpu1.dcache.avg_blocked_cycles::no_mshrs          nan                       # average number of cycles each access was blocked
system.cpu1.dcache.avg_blocked_cycles::no_targets          nan                       # average number of cycles each access was blocked
system.cpu1.dcache.writebacks::.writebacks     57617343                       # number of writebacks
system.cpu1.dcache.writebacks::total         57617343                       # number of writebacks
system.cpu1.dcache.demand_mshr_misses::.cpu1.data     87886875                       # number of demand (read+write) MSHR misses
system.cpu1.dcache.demand_mshr_misses::total     87886875                       # number of demand (read+write) MSHR misses
system.cpu1.dcache.overall_mshr_misses::.cpu1.data     87918223                       # number of overall MSHR misses
system.cpu1.dcache.overall_mshr_misses::total     87918223                       # number of overall MSHR misses
system.cpu1.dcache.demand_mshr_miss_latency::.cpu1.data 1020768232977                       # number of demand (read+write) MSHR miss cycles
system.cpu1.dcache.demand_mshr_miss_latency::total 1020768232977                       # number of demand (read+write) MSHR miss cycles
system.cpu1.dcache.overall_mshr_miss_latency::.cpu1.data 1023574075659                       # number of overall MSHR miss cycles
system.cpu1.dcache.overall_mshr_miss_latency::total 1023574075659                       # number of overall MSHR miss cycles
system.cpu1.dcache.demand_mshr_miss_rate::.cpu1.data     0.282345                       # mshr miss rate for demand accesses
system.cpu1.dcache.demand_mshr_miss_rate::total     0.282345                       # mshr miss rate for demand accesses
system.cpu1.dcache.overall_mshr_miss_rate::.cpu1.data     0.282389                       # mshr miss rate for overall accesses
system.cpu1.dcache.overall_mshr_miss_rate::total     0.282389                       # mshr miss rate for overall accesses
system.cpu1.dcache.demand_avg_mshr_miss_latency::.cpu1.data 11614.569672                       # average overall mshr miss latency
system.cpu1.dcache.demand_avg_mshr_miss_latency::total 11614.569672                       # average overall mshr miss latency
system.cpu1.dcache.overall_avg_mshr_miss_latency::.cpu1.data 11642.342631                       # average overall mshr miss latency
system.cpu1.dcache.overall_avg_mshr_miss_latency::total 11642.342631                       # average overall mshr miss latency
system.cpu1.dcache.replacements              87918215                       # number of replacements
system.cpu1.dcache.ReadReq_hits::.cpu1.data    155976044                       # number of ReadReq hits
system.cpu1.dcache.ReadReq_hits::total      155976044                       # number of ReadReq hits
system.cpu1.dcache.ReadReq_misses::.cpu1.data     80661362                       # number of ReadReq misses
system.cpu1.dcache.ReadReq_misses::total     80661362                       # number of ReadReq misses
system.cpu1.dcache.ReadReq_miss_latency::.cpu1.data 936536685507                       # number of ReadReq miss cycles
system.cpu1.dcache.ReadReq_miss_latency::total 936536685507                       # number of ReadReq miss cycles
system.cpu1.dcache.ReadReq_accesses::.cpu1.data    236637406                       # number of ReadReq accesses(hits+misses)
system.cpu1.dcache.ReadReq_accesses::total    236637406                       # number of ReadReq accesses(hits+misses)
system.cpu1.dcache.ReadReq_miss_rate::.cpu1.data     0.340865                       # miss rate for ReadReq accesses
system.cpu1.dcache.ReadReq_miss_rate::total     0.340865                       # miss rate for ReadReq accesses
system.cpu1.dcache.ReadReq_avg_miss_latency::.cpu1.data 11610.722436                       # average ReadReq miss latency
system.cpu1.dcache.ReadReq_avg_miss_latency::total 11610.722436                       # average ReadReq miss latency
system.cpu1.dcache.ReadReq_mshr_misses::.cpu1.data     80661362                       # number of ReadReq MSHR misses
system.cpu1.dcache.ReadReq_mshr_misses::total     80661362                       # number of ReadReq MSHR misses
system.cpu1.dcache.ReadReq_mshr_miss_latency::.cpu1.data 882816218415                       # number of ReadReq MSHR miss cycles
system.cpu1.dcache.ReadReq_mshr_miss_latency::total 882816218415                       # number of ReadReq MSHR miss cycles
system.cpu1.dcache.ReadReq_mshr_miss_rate::.cpu1.data     0.340865                       # mshr miss rate for ReadReq accesses
system.cpu1.dcache.ReadReq_mshr_miss_rate::total     0.340865                       # mshr miss rate for ReadReq accesses
system.cpu1.dcache.ReadReq_avg_mshr_miss_latency::.cpu1.data 10944.722436                       # average ReadReq mshr miss latency
system.cpu1.dcache.ReadReq_avg_mshr_miss_latency::total 10944.722436                       # average ReadReq mshr miss latency
system.cpu1.dcache.WriteReq_hits::.cpu1.data     67411941                       # number of WriteReq hits
system.cpu1.dcache.WriteReq_hits::total      67411941                       # number of WriteReq hits
system.cpu1.dcache.WriteReq_misses::.cpu1.data      7225513                       # number of WriteReq misses
[...]
system.mem_ctrls.wrQLenPdf::114                     0                       # What write queue length does an incoming req see
system.mem_ctrls.wrQLenPdf::115                     0                       # What write queue length does an incoming req see
system.mem_ctrls.wrQLenPdf::116                     0                       # What write queue length does an incoming req see
system.mem_ctrls.wrQLenPdf::117                     0                       # What write queue length does an incoming req see
system.mem_ctrls.wrQLenPdf::118                     0                       # What write queue length does an incoming req see
system.mem_ctrls.wrQLenPdf::119                     0                       # What write queue length does an incoming req see
system.mem_ctrls.wrQLenPdf::120                     0                       # What write queue length does an incoming req see
system.mem_ctrls.wrQLenPdf::121                     0                       # What write queue length does an incoming req see
system.mem_ctrls.wrQLenPdf::122                     0                       # What write queue length does an incoming req see
system.mem_ctrls.wrQLenPdf::123                     0                       # What write queue length does an incoming req see
system.mem_ctrls.wrQLenPdf::124                     0                       # What write queue length does an incoming req see
system.mem_ctrls.wrQLenPdf::125                     0                       # What write queue length does an incoming req see
system.mem_ctrls.wrQLenPdf::126                     0                       # What write queue length does an incoming req see
system.mem_ctrls.wrQLenPdf::127                     0                       # What write queue length does an incoming req see
system.mem_ctrls.bytesPerActivate::samples      2002894                       # Bytes accessed per row activation
system.mem_ctrls.bytesPerActivate::mean            64                       # Bytes accessed per row activation
system.mem_ctrls.bytesPerActivate::gmean    64.000000                       # Bytes accessed per row activation
system.mem_ctrls.bytesPerActivate::64-71      2002894    100.00%    100.00% # Bytes accessed per row activation
system.mem_ctrls.bytesPerActivate::total      2002894                       # Bytes accessed per row activation
system.mem_ctrls.rdPerTurnAround::samples        38174                       # Reads before turning the bus around for writes
system.mem_ctrls.rdPerTurnAround::mean      35.330853                       # Reads before turning the bus around for writes
system.mem_ctrls.rdPerTurnAround::gmean     22.860749                       # Reads before turning the bus around for writes
system.mem_ctrls.rdPerTurnAround::stdev    861.216319                       # Reads before turning the bus around for writes
system.mem_ctrls.rdPerTurnAround::0-4095        38172     99.99%     99.99% # Reads before turning the bus around for writes
system.mem_ctrls.rdPerTurnAround::4096-8191            1      0.00%    100.00% # Reads before turning the bus around for writes
system.mem_ctrls.rdPerTurnAround::163840-167935            1      0.00%    100.00% # Reads before turning the bus around for writes
system.mem_ctrls.rdPerTurnAround::total         38174                       # Reads before turning the bus around for writes
system.mem_ctrls.wrPerTurnAround::samples        38174                       # Writes before turning the bus around for reads
system.mem_ctrls.wrPerTurnAround::mean      17.136245                       # Writes before turning the bus around for reads
system.mem_ctrls.wrPerTurnAround::gmean     17.114275                       # Writes before turning the bus around for reads
system.mem_ctrls.wrPerTurnAround::stdev      0.863551                       # Writes before turning the bus around for reads
system.mem_ctrls.wrPerTurnAround::16            11941     31.28%     31.28% # Writes before turning the bus around for reads
system.mem_ctrls.wrPerTurnAround::17             9133     23.92%     55.21% # Writes before turning the bus around for reads
system.mem_ctrls.wrPerTurnAround::18            17062     44.70%     99.90% # Writes before turning the bus around for reads
system.mem_ctrls.wrPerTurnAround::19               34      0.09%     99.99% # Writes before turning the bus around for reads
system.mem_ctrls.wrPerTurnAround::20                4      0.01%    100.00% # Writes before turning the bus around for reads
system.mem_ctrls.wrPerTurnAround::total         38174                       # Writes before turning the bus around for reads
system.mem_ctrls.bytesReadDRAM               86319040                       # Total number of bytes read from DRAM
system.mem_ctrls.bytesReadWrQ                    1984                       # Total number of bytes read from write queue
system.mem_ctrls.bytesWritten                41866176                       # Total number of bytes written to DRAM
system.mem_ctrls.bytesReadSys                86321024                       # Total read bytes from the system interface side
system.mem_ctrls.bytesWrittenSys             41869696                       # Total written bytes from the system interface side
system.mem_ctrls.avgRdBW                        41.69                       # Average DRAM read bandwidth in MiByte/s
system.mem_ctrls.avgWrBW                        20.22                       # Average achieved write bandwidth in MiByte/s
system.mem_ctrls.avgRdBWSys                     41.69                       # Average system read bandwidth in MiByte/s
system.mem_ctrls.avgWrBWSys                     20.22                       # Average system write bandwidth in MiByte/s
system.mem_ctrls.peakBW                      19207.00                       # Theoretical peak bandwidth in MiByte/s
system.mem_ctrls.busUtil                         0.32                       # Data bus utilization in percentage
system.mem_ctrls.busUtilRead                     0.22                       # Data bus utilization in percentage for reads
system.mem_ctrls.busUtilWrite                    0.11                       # Data bus utilization in percentage for writes
system.mem_ctrls.totGap                  2070211082967                       # Total gap between requests
system.mem_ctrls.avgGap                    1033565.53                       # Average gap between requests
system.mem_ctrls.masterReadBytes::.cpu0.inst        28736                       # Per-master bytes read from memory
system.mem_ctrls.masterReadBytes::.cpu0.data     22237888                       # Per-master bytes read from memory
system.mem_ctrls.masterReadBytes::.cpu1.inst       685888                       # Per-master bytes read from memory
system.mem_ctrls.masterReadBytes::.cpu1.data     63366528                       # Per-master bytes read from memory
system.mem_ctrls.masterWriteBytes::.writebacks     41866176                       # Per-master bytes write to memory
system.mem_ctrls.masterReadRate::.cpu0.inst 13879.465599937630                       # Per-master bytes read from memory rate (Bytes/sec)
system.mem_ctrls.masterReadRate::.cpu0.data 10740882.569295162335                       # Per-master bytes read from memory rate (Bytes/sec)
system.mem_ctrls.masterReadRate::.cpu1.inst 331283.369341941143                       # Per-master bytes read from memory rate (Bytes/sec)
system.mem_ctrls.masterReadRate::.cpu1.data 30605983.629018813372                       # Per-master bytes read from memory rate (Bytes/sec)
system.mem_ctrls.masterWriteRate::.writebacks 20221330.372805345803                       # Per-master bytes write to memory rate (Bytes/sec)
system.mem_ctrls.masterReadAccesses::.cpu0.inst          449                       # Per-master read serviced memory accesses
system.mem_ctrls.masterReadAccesses::.cpu0.data       347467                       # Per-master read serviced memory accesses
system.mem_ctrls.masterReadAccesses::.cpu1.inst        10717                       # Per-master read serviced memory accesses
system.mem_ctrls.masterReadAccesses::.cpu1.data       990133                       # Per-master read serviced memory accesses
system.mem_ctrls.masterWriteAccesses::.writebacks       654214                       # Per-master write serviced memory accesses
system.mem_ctrls.masterReadTotalLat::.cpu0.inst     16482818                       # Per-master read total memory access latency
system.mem_ctrls.masterReadTotalLat::.cpu0.data  13987465855                       # Per-master read total memory access latency
system.mem_ctrls.masterReadTotalLat::.cpu1.inst    404097569                       # Per-master read total memory access latency
system.mem_ctrls.masterReadTotalLat::.cpu1.data  38454688623                       # Per-master read total memory access latency
system.mem_ctrls.masterWriteTotalLat::.writebacks 114505851894363                       # Per-master write total memory access latency
system.mem_ctrls.masterReadAvgLat::.cpu0.inst     36710.06                       # Per-master read average memory access latency
system.mem_ctrls.masterReadAvgLat::.cpu0.data     40255.52                       # Per-master read average memory access latency
system.mem_ctrls.masterReadAvgLat::.cpu1.inst     37706.22                       # Per-master read average memory access latency
system.mem_ctrls.masterReadAvgLat::.cpu1.data     38837.90                       # Per-master read average memory access latency
system.mem_ctrls.masterWriteAvgLat::.writebacks 175028128.25                       # Per-master write average memory access latency
system.mem_ctrls.pageHitRate                     0.00                       # Row buffer hit rate, read and write combined
system.mem_ctrls.rank1.actEnergy         1561284676.223194                       # Energy for activate commands per rank (pJ)
system.mem_ctrls.rank1.preEnergy         2756267947.639610                       # Energy for precharge commands per rank (pJ)
system.mem_ctrls.rank1.readEnergy        1849434858.029995                       # Energy for read commands per rank (pJ)
system.mem_ctrls.rank1.writeEnergy       771321667.871775                       # Energy for write commands per rank (pJ)
system.mem_ctrls.rank1.refreshEnergy     179722156038.522736                       # Energy for refresh commands per rank (pJ)
system.mem_ctrls.rank1.actBackEnergy     53951015521.988808                       # Energy for active background per rank (pJ)
system.mem_ctrls.rank1.preBackEnergy     638532117169.398071                       # Energy for precharge background per rank (pJ)
system.mem_ctrls.rank1.actPowerDownEnergy            0                       # Energy for active power-down per rank (pJ)
system.mem_ctrls.rank1.prePowerDownEnergy            0                       # Energy for precharge power-down per rank (pJ)
system.mem_ctrls.rank1.selfRefreshEnergy            0                       # Energy for self refresh per rank (pJ)
system.mem_ctrls.rank1.totalEnergy       879143597886.381836                       # Total energy per rank (pJ)
system.mem_ctrls.rank1.averagePower        424.625672                       # Core power per rank (mW)
system.mem_ctrls.rank1.totalIdleTime                0                       # Total Idle time Per DRAM Rank
system.mem_ctrls.rank1.memoryStateTime::IDLE 1943099564572                       # Time in different power states
system.mem_ctrls.rank1.memoryStateTime::REF  93071300000                       # Time in different power states
system.mem_ctrls.rank1.memoryStateTime::SREF            0                       # Time in different power states
system.mem_ctrls.rank1.memoryStateTime::PRE_PDN            0                       # Time in different power states
system.mem_ctrls.rank1.memoryStateTime::ACT  34225851576                       # Time in different power states
system.mem_ctrls.rank1.memoryStateTime::ACT_PDN            0                       # Time in different power states
system.mem_ctrls.rank0.actEnergy         1561980157.919209                       # Energy for activate commands per rank (pJ)
system.mem_ctrls.rank0.preEnergy         2757495740.326007                       # Energy for precharge commands per rank (pJ)
system.mem_ctrls.rank0.readEnergy        1850013610.436395                       # Energy for read commands per rank (pJ)
system.mem_ctrls.rank0.writeEnergy       771876046.031775                       # Energy for write commands per rank (pJ)
system.mem_ctrls.rank0.refreshEnergy     179722156038.522736                       # Energy for refresh commands per rank (pJ)
system.mem_ctrls.rank0.actBackEnergy     53952887454.915642                       # Energy for active background per rank (pJ)
system.mem_ctrls.rank0.preBackEnergy     638530824870.527466                       # Energy for precharge background per rank (pJ)
system.mem_ctrls.rank0.actPowerDownEnergy            0                       # Energy for active power-down per rank (pJ)
system.mem_ctrls.rank0.prePowerDownEnergy            0                       # Energy for precharge power-down per rank (pJ)
system.mem_ctrls.rank0.selfRefreshEnergy            0                       # Energy for self refresh per rank (pJ)
system.mem_ctrls.rank0.totalEnergy       879147233925.376221                       # Total energy per rank (pJ)
system.mem_ctrls.rank0.averagePower        424.627429                       # Core power per rank (mW)
system.mem_ctrls.rank0.totalIdleTime                0                       # Total Idle time Per DRAM Rank
system.mem_ctrls.rank0.memoryStateTime::IDLE 1943096035136                       # Time in different power states
system.mem_ctrls.rank0.memoryStateTime::REF  93071300000                       # Time in different power states
system.mem_ctrls.rank0.memoryStateTime::SREF            0                       # Time in different power states
system.mem_ctrls.rank0.memoryStateTime::PRE_PDN            0                       # Time in different power states
system.mem_ctrls.rank0.memoryStateTime::ACT  34229381012                       # Time in different power states
system.mem_ctrls.rank0.memoryStateTime::ACT_PDN            0                       # Time in different power states
system.cpu_clk_domain.clock                       333                       # Clock period in ticks
system.tol2bus.pwrStateResidencyTicks::UNDEFINED 2070396716148                       # Cumulative time (in ticks) in various power states
system.tol2bus.trans_dist::ReadResp          81057980                       # Transaction distribution
system.tol2bus.trans_dist::WritebackDirty     58272074                       # Transaction distribution
system.tol2bus.trans_dist::WritebackClean        16667                       # Transaction distribution
system.tol2bus.trans_dist::CleanEvict        31081643                       # Transaction distribution
system.tol2bus.trans_dist::ReadExReq          7225769                       # Transaction distribution
system.tol2bus.trans_dist::ReadExResp         7225769                       # Transaction distribution
system.tol2bus.trans_dist::ReadCleanReq         17610                       # Transaction distribution
system.tol2bus.trans_dist::ReadSharedReq     81040370                       # Transaction distribution
system.tol2bus.pkt_count_system.cpu0.icache.mem_side::system.l2.cpu_side          916                       # Packet count per connected master and slave (bytes)
system.tol2bus.pkt_count_system.cpu0.dcache.mem_side::system.l2.cpu_side      1043740                       # Packet count per connected master and slave (bytes)
system.tol2bus.pkt_count_system.cpu1.icache.mem_side::system.l2.cpu_side        50971                       # Packet count per connected master and slave (bytes)
system.tol2bus.pkt_count_system.cpu1.dcache.mem_side::system.l2.cpu_side    263754661                       # Packet count per connected master and slave (bytes)
system.tol2bus.pkt_count::total             264850288                       # Packet count per connected master and slave (bytes)
system.tol2bus.pkt_size_system.cpu0.icache.mem_side::system.l2.cpu_side        29888                       # Cumulative packet size per connected master and slave (bytes)
system.tol2bus.pkt_size_system.cpu0.dcache.mem_side::system.l2.cpu_side     22299712                       # Cumulative packet size per connected master and slave (bytes)
system.tol2bus.pkt_size_system.cpu1.icache.mem_side::system.l2.cpu_side      2163840                       # Cumulative packet size per connected master and slave (bytes)
system.tol2bus.pkt_size_system.cpu1.dcache.mem_side::system.l2.cpu_side   9314276224                       # Cumulative packet size per connected master and slave (bytes)
system.tol2bus.pkt_size::total             9338769664                       # Cumulative packet size per connected master and slave (bytes)
system.tol2bus.snoops                         1087594                       # Total snoops (count)
system.tol2bus.snoopTraffic                  41869696                       # Total snoop traffic (bytes)
system.tol2bus.snoop_fanout::samples         89371343                       # Request fanout histogram
system.tol2bus.snoop_fanout::mean            0.000020                       # Request fanout histogram
system.tol2bus.snoop_fanout::stdev           0.004494                       # Request fanout histogram
system.tol2bus.snoop_fanout::underflows             0      0.00%      0.00% # Request fanout histogram
system.tol2bus.snoop_fanout::0               89369538    100.00%    100.00% # Request fanout histogram
system.tol2bus.snoop_fanout::1                   1805      0.00%    100.00% # Request fanout histogram
system.tol2bus.snoop_fanout::2                      0      0.00%    100.00% # Request fanout histogram
system.tol2bus.snoop_fanout::3                      0      0.00%    100.00% # Request fanout histogram
system.tol2bus.snoop_fanout::4                      0      0.00%    100.00% # Request fanout histogram
system.tol2bus.snoop_fanout::5                      0      0.00%    100.00% # Request fanout histogram
system.tol2bus.snoop_fanout::6                      0      0.00%    100.00% # Request fanout histogram
system.tol2bus.snoop_fanout::7                      0      0.00%    100.00% # Request fanout histogram
system.tol2bus.snoop_fanout::8                      0      0.00%    100.00% # Request fanout histogram
system.tol2bus.snoop_fanout::overflows              0      0.00%    100.00% # Request fanout histogram
system.tol2bus.snoop_fanout::min_value              0                       # Request fanout histogram
system.tol2bus.snoop_fanout::max_value              1                       # Request fanout histogram
system.tol2bus.snoop_fanout::total           89371343                       # Request fanout histogram
system.tol2bus.reqLayer0.occupancy        97181252469                       # Layer occupancy (ticks)
system.tol2bus.reqLayer0.utilization              4.7                       # Layer utilization (%)
system.tol2bus.respLayer5.occupancy       87830305109                       # Layer occupancy (ticks)
system.tol2bus.respLayer5.utilization             4.2                       # Layer utilization (%)
system.tol2bus.respLayer4.occupancy          17144171                       # Layer occupancy (ticks)
system.tol2bus.respLayer4.utilization             0.0                       # Layer utilization (%)
system.tol2bus.respLayer1.occupancy         348737056                       # Layer occupancy (ticks)
system.tol2bus.respLayer1.utilization             0.0                       # Layer utilization (%)
system.tol2bus.respLayer0.occupancy            448551                       # Layer occupancy (ticks)
system.tol2bus.respLayer0.utilization             0.0                       # Layer utilization (%)

---------- End Simulation Statistics   ----------
