
---------- Begin Simulation Statistics ----------
final_tick                               2904955112358                       # Number of ticks from beginning of simulation (restored from checkpoints and never reset)
host_inst_rate                                 586723                       # Simulator instruction rate (inst/s)
host_mem_usage                                9690192                       # Number of bytes of host memory used
host_op_rate                                  1045508                       # Simulator op (including micro ops) rate (op/s)
host_seconds                                  1751.74                       # Real time elapsed on the host
host_tick_rate                             1658322116                       # Simulator tick rate (ticks/s)
sim_freq                                 1000000000000                       # Frequency of simulated ticks
sim_insts                                  1027788099                       # Number of instructions simulated
sim_ops                                    1831461231                       # Number of ops (including micro ops) simulated
sim_seconds                                  2.904955                       # Number of seconds simulated
sim_ticks                                2904955112358                       # Number of ticks simulated
system.cpu0.Branches                          2780018                       # Number of branches fetched
system.cpu0.committedInsts                   27788099                       # Number of instructions committed
system.cpu0.committedOps                     52797721                       # Number of ops (including micro ops) committed
system.cpu0.dtb.rdAccesses                   11113063                       # TLB accesses on read requests
system.cpu0.dtb.rdMisses                         5446                       # TLB misses on read requests
system.cpu0.dtb.wrAccesses                    5557395                       # TLB accesses on write requests
system.cpu0.dtb.wrMisses                            8                       # TLB misses on write requests
system.cpu0.idle_fraction                    0.976709                       # Percentage of idle cycles
system.cpu0.itb.rdAccesses                          0                       # TLB accesses on read requests
system.cpu0.itb.rdMisses                            0                       # TLB misses on read requests
system.cpu0.itb.wrAccesses                   38902351                       # TLB accesses on write requests
system.cpu0.itb.wrMisses                           46                       # TLB misses on write requests
system.cpu0.not_idle_fraction                0.023291                       # Percentage of non-idle cycles
system.cpu0.numCycles                       203185097                       # number of cpu cycles simulated
system.cpu0.numWorkItemsCompleted                   0                       # number of work items this cpu completed
system.cpu0.numWorkItemsStarted                     0                       # number of work items this cpu started
system.cpu0.num_busy_cycles              4732476.964824                       # Number of busy cycles
system.cpu0.num_cc_register_reads            13899961                       # number of times the CC registers were read
system.cpu0.num_cc_register_writes           16672913                       # number of times the CC registers were written
system.cpu0.num_conditional_control_insts      2779471                       # number of instructions that are conditional controls
system.cpu0.num_fp_alu_accesses                  1214                       # Number of float alu accesses
system.cpu0.num_fp_insts                         1214                       # number of float instructions
system.cpu0.num_fp_register_reads                1401                       # number of times the floating registers were read
system.cpu0.num_fp_register_writes                679                       # number of times the floating registers were written
system.cpu0.num_func_calls                        384                       # number of times a function call or return occured
system.cpu0.num_idle_cycles              198452620.035176                       # Number of idle cycles
system.cpu0.num_int_alu_accesses             52796880                       # Number of integer alu accesses
system.cpu0.num_int_insts                    52796880                       # number of integer instructions
system.cpu0.num_int_register_reads          105592520                       # number of times the integer registers were read
system.cpu0.num_int_register_writes          44459432                       # number of times the integer registers were written
system.cpu0.num_load_insts                   11113060                       # Number of load instructions
system.cpu0.num_mem_refs                     16670454                       # number of memory refs
system.cpu0.num_store_insts                   5557394                       # Number of store instructions
system.cpu0.num_vec_alu_accesses                    0                       # Number of vector alu accesses
system.cpu0.num_vec_insts                           0                       # number of vector instructions
system.cpu0.num_vec_register_reads                  0                       # number of times the vector registers were read
system.cpu0.num_vec_register_writes                 0                       # number of times the vector registers were written
system.cpu0.op_class::No_OpClass                  336      0.00%      0.00% # Class of executed instruction
system.cpu0.op_class::IntAlu                 36126368     68.42%     68.42% # Class of executed instruction
system.cpu0.op_class::IntMult                       5      0.00%     68.42% # Class of executed instruction
system.cpu0.op_class::IntDiv                       28      0.00%     68.42% # Class of executed instruction
system.cpu0.op_class::FloatAdd                    144      0.00%     68.43% # Class of executed instruction
system.cpu0.op_class::FloatCmp                      0      0.00%     68.43% # Class of executed instruction
system.cpu0.op_class::FloatCvt                      0      0.00%     68.43% # Class of executed instruction
system.cpu0.op_class::FloatMult                     0      0.00%     68.43% # Class of executed instruction
system.cpu0.op_class::FloatMultAcc                  0      0.00%     68.43% # Class of executed instruction
system.cpu0.op_class::FloatDiv                      0      0.00%     68.43% # Class of executed instruction
system.cpu0.op_class::FloatMisc                     0      0.00%     68.43% # Class of executed instruction
system.cpu0.op_class::FloatSqrt                     0      0.00%     68.43% # Class of executed instruction
system.cpu0.op_class::SimdAdd                       0      0.00%     68.43% # Class of executed instruction
system.cpu0.op_class::SimdAddAcc                    0      0.00%     68.43% # Class of executed instruction
system.cpu0.op_class::SimdAlu                     104      0.00%     68.43% # Class of executed instruction
system.cpu0.op_class::SimdCmp                       0      0.00%     68.43% # Class of executed instruction
system.cpu0.op_class::SimdCvt                      54      0.00%     68.43% # Class of executed instruction
system.cpu0.op_class::SimdMisc                    228      0.00%     68.43% # Class of executed instruction
system.cpu0.op_class::SimdMult                      0      0.00%     68.43% # Class of executed instruction
system.cpu0.op_class::SimdMultAcc                   0      0.00%     68.43% # Class of executed instruction
system.cpu0.op_class::SimdShift                     0      0.00%     68.43% # Class of executed instruction
system.cpu0.op_class::SimdShiftAcc                  0      0.00%     68.43% # Class of executed instruction
system.cpu0.op_class::SimdDiv                       0      0.00%     68.43% # Class of executed instruction
system.cpu0.op_class::SimdSqrt                      0      0.00%     68.43% # Class of executed instruction
system.cpu0.op_class::SimdFloatAdd                  0      0.00%     68.43% # Class of executed instruction
system.cpu0.op_class::SimdFloatAlu                  0      0.00%     68.43% # Class of executed instruction
system.cpu0.op_class::SimdFloatCmp                  0      0.00%     68.43% # Class of executed instruction
system.cpu0.op_class::SimdFloatCvt                  0      0.00%     68.43% # Class of executed instruction
system.cpu0.op_class::SimdFloatDiv                  0      0.00%     68.43% # Class of executed instruction
system.cpu0.op_class::SimdFloatMisc                 0      0.00%     68.43% # Class of executed instruction
system.cpu0.op_class::SimdFloatMult                 0      0.00%     68.43% # Class of executed instruction
system.cpu0.op_class::SimdFloatMultAcc              0      0.00%     68.43% # Class of executed instruction
system.cpu0.op_class::SimdFloatSqrt                 0      0.00%     68.43% # Class of executed instruction
system.cpu0.op_class::SimdReduceAdd                 0      0.00%     68.43% # Class of executed instruction
system.cpu0.op_class::SimdReduceAlu                 0      0.00%     68.43% # Class of executed instruction
system.cpu0.op_class::SimdReduceCmp                 0      0.00%     68.43% # Class of executed instruction
system.cpu0.op_class::SimdFloatReduceAdd            0      0.00%     68.43% # Class of executed instruction
system.cpu0.op_class::SimdFloatReduceCmp            0      0.00%     68.43% # Class of executed instruction
system.cpu0.op_class::SimdAes                       0      0.00%     68.43% # Class of executed instruction
system.cpu0.op_class::SimdAesMix                    0      0.00%     68.43% # Class of executed instruction
system.cpu0.op_class::SimdSha1Hash                  0      0.00%     68.43% # Class of executed instruction
system.cpu0.op_class::SimdSha1Hash2                 0      0.00%     68.43% # Class of executed instruction
system.cpu0.op_class::SimdSha256Hash                0      0.00%     68.43% # Class of executed instruction
system.cpu0.op_class::SimdSha256Hash2               0      0.00%     68.43% # Class of executed instruction
system.cpu0.op_class::SimdShaSigma2                 0      0.00%     68.43% # Class of executed instruction
system.cpu0.op_class::SimdShaSigma3                 0      0.00%     68.43% # Class of executed instruction
system.cpu0.op_class::SimdPredAlu                   0      0.00%     68.43% # Class of executed instruction
system.cpu0.op_class::MemRead                11113000     21.05%     89.47% # Class of executed instruction
system.cpu0.op_class::MemWrite                5556913     10.52%    100.00% # Class of executed instruction
system.cpu0.op_class::FloatMemRead                 60      0.00%    100.00% # Class of executed instruction
system.cpu0.op_class::FloatMemWrite               481      0.00%    100.00% # Class of executed instruction
system.cpu0.op_class::IprAccess                     0      0.00%    100.00% # Class of executed instruction
system.cpu0.op_class::InstPrefetch                  0      0.00%    100.00% # Class of executed instruction
system.cpu0.op_class::total                  52797721                       # Class of executed instruction
system.cpu0.workload.numSyscalls                   12                       # Number of system calls
system.cpu1.Branches                        235945707                       # Number of branches fetched
system.cpu1.committedInsts                 1000000000                       # Number of instructions committed
system.cpu1.committedOps                   1778663510                       # Number of ops (including micro ops) committed
system.cpu1.dtb.rdAccesses                  301390361                       # TLB accesses on read requests
system.cpu1.dtb.rdMisses                     18835341                       # TLB misses on read requests
system.cpu1.dtb.wrAccesses                  114776714                       # TLB accesses on write requests
system.cpu1.dtb.wrMisses                       552180                       # TLB misses on write requests
system.cpu1.idle_fraction                           0                       # Percentage of idle cycles
system.cpu1.itb.rdAccesses                          0                       # TLB accesses on read requests
system.cpu1.itb.rdMisses                            0                       # TLB misses on read requests
system.cpu1.itb.wrAccesses                 1278068988                       # TLB accesses on write requests
system.cpu1.itb.wrMisses                           61                       # TLB misses on write requests
system.cpu1.not_idle_fraction                       1                       # Percentage of non-idle cycles
system.cpu1.numCycles                      8723588926                       # number of cpu cycles simulated
system.cpu1.numWorkItemsCompleted                   0                       # number of work items this cpu completed
system.cpu1.numWorkItemsStarted                     0                       # number of work items this cpu started
system.cpu1.num_busy_cycles                8723588926                       # Number of busy cycles
system.cpu1.num_cc_register_reads          1194687207                       # number of times the CC registers were read
system.cpu1.num_cc_register_writes          549028320                       # number of times the CC registers were written
system.cpu1.num_conditional_control_insts    187919433                       # number of instructions that are conditional controls
system.cpu1.num_fp_alu_accesses              16784849                       # Number of float alu accesses
system.cpu1.num_fp_insts                     16784849                       # number of float instructions
system.cpu1.num_fp_register_reads            17600009                       # number of times the floating registers were read
system.cpu1.num_fp_register_writes           10349970                       # number of times the floating registers were written
system.cpu1.num_func_calls                   33951343                       # number of times a function call or return occured
system.cpu1.num_idle_cycles                         0                       # Number of idle cycles
system.cpu1.num_int_alu_accesses           1751848982                       # Number of integer alu accesses
system.cpu1.num_int_insts                  1751848982                       # number of integer instructions
system.cpu1.num_int_register_reads         3533242593                       # number of times the integer registers were read
system.cpu1.num_int_register_writes        1411266192                       # number of times the integer registers were written
system.cpu1.num_load_insts                  301350804                       # Number of load instructions
system.cpu1.num_mem_refs                    416127511                       # number of memory refs
system.cpu1.num_store_insts                 114776707                       # Number of store instructions
system.cpu1.num_vec_alu_accesses                    0                       # Number of vector alu accesses
system.cpu1.num_vec_insts                           0                       # number of vector instructions
system.cpu1.num_vec_register_reads                  0                       # number of times the vector registers were read
system.cpu1.num_vec_register_writes                 0                       # number of times the vector registers were written
system.cpu1.op_class::No_OpClass             20195478      1.14%      1.14% # Class of executed instruction
system.cpu1.op_class::IntAlu               1326816945     74.60%     75.73% # Class of executed instruction
system.cpu1.op_class::IntMult                 3164679      0.18%     75.91% # Class of executed instruction
system.cpu1.op_class::IntDiv                  4825055      0.27%     76.18% # Class of executed instruction
system.cpu1.op_class::FloatAdd                2088766      0.12%     76.30% # Class of executed instruction
system.cpu1.op_class::FloatCmp                      0      0.00%     76.30% # Class of executed instruction
system.cpu1.op_class::FloatCvt                      0      0.00%     76.30% # Class of executed instruction
system.cpu1.op_class::FloatMult                     0      0.00%     76.30% # Class of executed instruction
system.cpu1.op_class::FloatMultAcc                  0      0.00%     76.30% # Class of executed instruction
system.cpu1.op_class::FloatDiv                      0      0.00%     76.30% # Class of executed instruction
system.cpu1.op_class::FloatMisc                     0      0.00%     76.30% # Class of executed instruction
system.cpu1.op_class::FloatSqrt                     0      0.00%     76.30% # Class of executed instruction
system.cpu1.op_class::SimdAdd                       0      0.00%     76.30% # Class of executed instruction
system.cpu1.op_class::SimdAddAcc                    0      0.00%     76.30% # Class of executed instruction
system.cpu1.op_class::SimdAlu                  356154      0.02%     76.32% # Class of executed instruction
system.cpu1.op_class::SimdCmp                      32      0.00%     76.32% # Class of executed instruction
system.cpu1.op_class::SimdCvt                  780858      0.04%     76.36% # Class of executed instruction
system.cpu1.op_class::SimdMisc                4308032      0.24%     76.60% # Class of executed instruction
system.cpu1.op_class::SimdMult                      0      0.00%     76.60% # Class of executed instruction
system.cpu1.op_class::SimdMultAcc                   0      0.00%     76.60% # Class of executed instruction
system.cpu1.op_class::SimdShift                     0      0.00%     76.60% # Class of executed instruction
system.cpu1.op_class::SimdShiftAcc                  0      0.00%     76.60% # Class of executed instruction
system.cpu1.op_class::SimdDiv                       0      0.00%     76.60% # Class of executed instruction
system.cpu1.op_class::SimdSqrt                      0      0.00%     76.60% # Class of executed instruction
system.cpu1.op_class::SimdFloatAdd                  0      0.00%     76.60% # Class of executed instruction
system.cpu1.op_class::SimdFloatAlu                  0      0.00%     76.60% # Class of executed instruction
system.cpu1.op_class::SimdFloatCmp                  0      0.00%     76.60% # Class of executed instruction
system.cpu1.op_class::SimdFloatCvt                  0      0.00%     76.60% # Class of executed instruction
system.cpu1.op_class::SimdFloatDiv                  0      0.00%     76.60% # Class of executed instruction
system.cpu1.op_class::SimdFloatMisc                 0      0.00%     76.60% # Class of executed instruction
system.cpu1.op_class::SimdFloatMult                 0      0.00%     76.60% # Class of executed instruction
system.cpu1.op_class::SimdFloatMultAcc              0      0.00%     76.60% # Class of executed instruction
system.cpu1.op_class::SimdFloatSqrt                 0      0.00%     76.60% # Class of executed instruction
system.cpu1.op_class::SimdReduceAdd                 0      0.00%     76.60% # Class of executed instruction
system.cpu1.op_class::SimdReduceAlu                 0      0.00%     76.60% # Class of executed instruction
system.cpu1.op_class::SimdReduceCmp                 0      0.00%     76.60% # Class of executed instruction
system.cpu1.op_class::SimdFloatReduceAdd            0      0.00%     76.60% # Class of executed instruction
system.cpu1.op_class::SimdFloatReduceCmp            0      0.00%     76.60% # Class of executed instruction
system.cpu1.op_class::SimdAes                       0      0.00%     76.60% # Class of executed instruction
system.cpu1.op_class::SimdAesMix                    0      0.00%     76.60% # Class of executed instruction
system.cpu1.op_class::SimdSha1Hash                  0      0.00%     76.60% # Class of executed instruction
system.cpu1.op_class::SimdSha1Hash2                 0      0.00%     76.60% # Class of executed instruction
system.cpu1.op_class::SimdSha256Hash                0      0.00%     76.60% # Class of executed instruction
system.cpu1.op_class::SimdSha256Hash2               0      0.00%     76.60% # Class of executed instruction
system.cpu1.op_class::SimdShaSigma2                 0      0.00%     76.60% # Class of executed instruction
system.cpu1.op_class::SimdShaSigma3                 0      0.00%     76.60% # Class of executed instruction
system.cpu1.op_class::SimdPredAlu                   0      0.00%     76.60% # Class of executed instruction
system.cpu1.op_class::MemRead               298976779     16.81%     93.41% # Class of executed instruction
system.cpu1.op_class::MemWrite              109122620      6.14%     99.55% # Class of executed instruction
system.cpu1.op_class::FloatMemRead            2374025      0.13%     99.68% # Class of executed instruction
system.cpu1.op_class::FloatMemWrite           5654087      0.32%    100.00% # Class of executed instruction
system.cpu1.op_class::IprAccess                     0      0.00%    100.00% # Class of executed instruction
system.cpu1.op_class::InstPrefetch                  0      0.00%    100.00% # Class of executed instruction
system.cpu1.op_class::total                1778663510                       # Class of executed instruction
system.cpu1.workload.numSyscalls                  307                       # Number of system calls
system.membus.snoop_filter.hit_multi_requests            0                       # Number of requests hitting in the snoop filter with multiple (>1) holders of the requested data.
system.membus.snoop_filter.hit_multi_snoops            0                       # Number of snoops hitting in the snoop filter with multiple (>1) holders of the requested data.
system.membus.snoop_filter.hit_single_requests      5441858                       # Number of requests hitting in the snoop filter with a single holder of the requested data.
system.membus.snoop_filter.hit_single_snoops            0                       # Number of snoops hitting in the snoop filter with a single holder of the requested data.
system.membus.snoop_filter.tot_requests      11146680                       # Total number of requests made to the snoop filter.
system.membus.snoop_filter.tot_snoops               0                       # Total number of snoops made to the snoop filter.
system.tol2bus.snoop_filter.hit_multi_requests            0                       # Number of requests hitting in the snoop filter with multiple (>1) holders of the requested data.
system.tol2bus.snoop_filter.hit_multi_snoops            0                       # Number of snoops hitting in the snoop filter with multiple (>1) holders of the requested data.
system.tol2bus.snoop_filter.hit_single_requests    124324548                       # Number of requests hitting in the snoop filter with a single holder of the requested data.
system.tol2bus.snoop_filter.hit_single_snoops         1042                       # Number of snoops hitting in the snoop filter with a single holder of the requested data.
system.tol2bus.snoop_filter.tot_requests    248650055                       # Total number of requests made to the snoop filter.
system.tol2bus.snoop_filter.tot_snoops           1042                       # Total number of snoops made to the snoop filter.
system.membus.pwrStateResidencyTicks::UNDEFINED 2904955112358                       # Cumulative time (in ticks) in various power states
system.membus.trans_dist::ReadResp            5354478                       # Transaction distribution
system.membus.trans_dist::WritebackDirty       307817                       # Transaction distribution
system.membus.trans_dist::CleanEvict          5134041                       # Transaction distribution
system.membus.trans_dist::ReadExReq            350344                       # Transaction distribution
system.membus.trans_dist::ReadExResp           350344                       # Transaction distribution
system.membus.trans_dist::ReadSharedReq       5354478                       # Transaction distribution
system.membus.pkt_count_system.l2.mem_side::system.mem_ctrls.port     16851502                       # Packet count per connected master and slave (bytes)
system.membus.pkt_count_system.l2.mem_side::total     16851502                       # Packet count per connected master and slave (bytes)
system.membus.pkt_count::total               16851502                       # Packet count per connected master and slave (bytes)
system.membus.pkt_size_system.l2.mem_side::system.mem_ctrls.port    384808896                       # Cumulative packet size per connected master and slave (bytes)
system.membus.pkt_size_system.l2.mem_side::total    384808896                       # Cumulative packet size per connected master and slave (bytes)
system.membus.pkt_size::total               384808896                       # Cumulative packet size per connected master and slave (bytes)
system.membus.snoops                                0                       # Total snoops (count)
system.membus.snoopTraffic                          0                       # Total snoop traffic (bytes)
system.membus.snoop_fanout::samples           5704822                       # Request fanout histogram
system.membus.snoop_fanout::mean                    0                       # Request fanout histogram
system.membus.snoop_fanout::stdev                   0                       # Request fanout histogram
system.membus.snoop_fanout::underflows              0      0.00%      0.00% # Request fanout histogram
system.membus.snoop_fanout::0                 5704822    100.00%    100.00% # Request fanout histogram
system.membus.snoop_fanout::1                       0      0.00%    100.00% # Request fanout histogram
system.membus.snoop_fanout::overflows               0      0.00%    100.00% # Request fanout histogram
system.membus.snoop_fanout::min_value               0                       # Request fanout histogram
system.membus.snoop_fanout::max_value               0                       # Request fanout histogram
system.membus.snoop_fanout::total             5704822                       # Request fanout histogram
system.membus.reqLayer4.occupancy         19155111417                       # Layer occupancy (ticks)
system.membus.reqLayer4.utilization               0.7                       # Layer utilization (%)
system.membus.respLayer1.occupancy        30527938137                       # Layer occupancy (ticks)
system.membus.respLayer1.utilization              1.1                       # Layer utilization (%)
system.voltage_domain.voltage                       1                       # Voltage in Volts
system.clk_domain.clock                          1000                       # Clock period in ticks
system.cpu0.numPwrStateTransitions                  1                       # Number of power state transitions
system.cpu0.pwrStateResidencyTicks::ON   2904955112358                       # Cumulative time (in ticks) in various power states
system.cpu0.icache.pwrStateResidencyTicks::UNDEFINED 2904955112358                       # Cumulative time (in ticks) in various power states
system.cpu0.icache.demand_hits::.cpu0.inst     38901902                       # number of demand (read+write) hits
system.cpu0.icache.demand_hits::total        38901902                       # number of demand (read+write) hits
system.cpu0.icache.overall_hits::.cpu0.inst     38901902                       # number of overall hits
system.cpu0.icache.overall_hits::total       38901902                       # number of overall hits
system.cpu0.icache.demand_misses::.cpu0.inst          449                       # number of demand (read+write) misses
system.cpu0.icache.demand_misses::total           449                       # number of demand (read+write) misses
system.cpu0.icache.overall_misses::.cpu0.inst          449                       # number of overall misses
system.cpu0.icache.overall_misses::total          449                       # number of overall misses
system.cpu0.icache.demand_miss_latency::.cpu0.inst     38258037                       # number of demand (read+write) miss cycles
system.cpu0.icache.demand_miss_latency::total     38258037                       # number of demand (read+write) miss cycles
system.cpu0.icache.overall_miss_latency::.cpu0.inst     38258037                       # number of overall miss cycles
system.cpu0.icache.overall_miss_latency::total     38258037                       # number of overall miss cycles
system.cpu0.icache.demand_accesses::.cpu0.inst     38902351                       # number of demand (read+write) accesses
system.cpu0.icache.demand_accesses::total     38902351                       # number of demand (read+write) accesses
system.cpu0.icache.overall_accesses::.cpu0.inst     38902351                       # number of overall (read+write) accesses
system.cpu0.icache.overall_accesses::total     38902351                       # number of overall (read+write) accesses
system.cpu0.icache.demand_miss_rate::.cpu0.inst     0.000012                       # miss rate for demand accesses
system.cpu0.icache.demand_miss_rate::total     0.000012                       # miss rate for demand accesses
system.cpu0.icache.overall_miss_rate::.cpu0.inst     0.000012                       # miss rate for overall accesses
system.cpu0.icache.overall_miss_rate::total     0.000012                       # miss rate for overall accesses
system.cpu0.icache.demand_avg_miss_latency::.cpu0.inst 85207.209354                       # average overall miss latency
system.cpu0.icache.demand_avg_miss_latency::total 85207.209354                       # average overall miss latency
system.cpu0.icache.overall_avg_miss_latency::.cpu0.inst 85207.209354                       # average overall miss latency
system.cpu0.icache.overall_avg_miss_latency::total 85207.209354                       # average overall miss latency
system.cpu0.icache.blocked_cycles::no_mshrs            0                       # number of cycles access was blocked
system.cpu0.icache.blocked_cycles::no_targets            0                       # number of cycles access was blocked
system.cpu0.icache.blocked::no_mshrs                0                       # number of cycles access was blocked
system.cpu0.icache.blocked::no_targets              0                       # number of cycles access was blocked
system.cpu0.icache.avg_blocked_cycles::no_mshrs          nan                       # average number of cycles each access was blocked
system.cpu0.icache.avg_blocked_cycles::no_targets          nan                       # average number of cycles each access was blocked
system.cpu0.icache.writebacks::.writebacks           18                       # number of writebacks
system.cpu0.icache.writebacks::total               18                       # number of writebacks
system.cpu0.icache.demand_mshr_misses::.cpu0.inst          449                       # number of demand (read+write) MSHR misses
system.cpu0.icache.demand_mshr_misses::total          449                       # number of demand (read+write) MSHR misses
system.cpu0.icache.overall_mshr_misses::.cpu0.inst          449                       # number of overall MSHR misses
system.cpu0.icache.overall_mshr_misses::total          449                       # number of overall MSHR misses
system.cpu0.icache.demand_mshr_miss_latency::.cpu0.inst     37959003                       # number of demand (read+write) MSHR miss cycles
system.cpu0.icache.demand_mshr_miss_latency::total     37959003                       # number of demand (read+write) MSHR miss cycles
system.cpu0.icache.overall_mshr_miss_latency::.cpu0.inst     37959003                       # number of overall MSHR miss cycles
system.cpu0.icache.overall_mshr_miss_latency::total     37959003                       # number of overall MSHR miss cycles
system.cpu0.icache.demand_mshr_miss_rate::.cpu0.inst     0.000012                       # mshr miss rate for demand accesses
system.cpu0.icache.demand_mshr_miss_rate::total     0.000012                       # mshr miss rate for demand accesses
system.cpu0.icache.overall_mshr_miss_rate::.cpu0.inst     0.000012                       # mshr miss rate for overall accesses
system.cpu0.icache.overall_mshr_miss_rate::total     0.000012                       # mshr miss rate for overall accesses
system.cpu0.icache.demand_avg_mshr_miss_latency::.cpu0.inst 84541.209354                       # average overall mshr miss latency
system.cpu0.icache.demand_avg_mshr_miss_latency::total 84541.209354                       # average overall mshr miss latency
system.cpu0.icache.overall_avg_mshr_miss_latency::.cpu0.inst 84541.209354                       # average overall mshr miss latency
system.cpu0.icache.overall_avg_mshr_miss_latency::total 84541.209354                       # average overall mshr miss latency
system.cpu0.icache.replacements                    18                       # number of replacements
system.cpu0.icache.ReadReq_hits::.cpu0.inst     38901902                       # number of ReadReq hits
system.cpu0.icache.ReadReq_hits::total       38901902                       # number of ReadReq hits
system.cpu0.icache.ReadReq_misses::.cpu0.inst          449                       # number of ReadReq misses
system.cpu0.icache.ReadReq_misses::total          449                       # number of ReadReq misses
system.cpu0.icache.ReadReq_miss_latency::.cpu0.inst     38258037                       # number of ReadReq miss cycles
system.cpu0.icache.ReadReq_miss_latency::total     38258037                       # number of ReadReq miss cycles
system.cpu0.icache.ReadReq_accesses::.cpu0.inst     38902351                       # number of ReadReq accesses(hits+misses)
system.cpu0.icache.ReadReq_accesses::total     38902351                       # number of ReadReq accesses(hits+misses)
system.cpu0.icache.ReadReq_miss_rate::.cpu0.inst     0.000012                       # miss rate for ReadReq accesses
system.cpu0.icache.ReadReq_miss_rate::total     0.000012                       # miss rate for ReadReq accesses
system.cpu0.icache.ReadReq_avg_miss_latency::.cpu0.inst 85207.209354                       # average ReadReq miss latency
system.cpu0.icache.ReadReq_avg_miss_latency::total 85207.209354                       # average ReadReq miss latency
system.cpu0.icache.ReadReq_mshr_misses::.cpu0.inst          449                       # number of ReadReq MSHR misses
system.cpu0.icache.ReadReq_mshr_misses::total          449                       # number of ReadReq MSHR misses
system.cpu0.icache.ReadReq_mshr_miss_latency::.cpu0.inst     37959003                       # number of ReadReq MSHR miss cycles
system.cpu0.icache.ReadReq_mshr_miss_latency::total     37959003                       # number of ReadReq MSHR miss cycles
system.cpu0.icache.ReadReq_mshr_miss_rate::.cpu0.inst     0.000012                       # mshr miss rate for ReadReq accesses
system.cpu0.icache.ReadReq_mshr_miss_rate::total     0.000012                       # mshr miss rate for ReadReq accesses
system.cpu0.icache.ReadReq_avg_mshr_miss_latency::.cpu0.inst 84541.209354                       # average ReadReq mshr miss latency
system.cpu0.icache.ReadReq_avg_mshr_miss_latency::total 84541.209354                       # average ReadReq mshr miss latency
system.cpu0.icache.tags.pwrStateResidencyTicks::UNDEFINED 2904955112358                       # Cumulative time (in ticks) in various power states
system.cpu0.icache.tags.tagsinuse          429.063429                       # Cycle average of tags in use
system.cpu0.icache.tags.total_refs           38902351                       # Total number of references to valid blocks.
system.cpu0.icache.tags.sampled_refs              449                       # Sample count of references to valid blocks.
system.cpu0.icache.tags.avg_refs         86642.207127                       # Average number of references to valid blocks.
system.cpu0.icache.tags.warmup_cycle            83250                       # Cycle when the warmup percentage was hit.
system.cpu0.icache.tags.occ_blocks::.cpu0.inst   429.063429                       # Average occupied blocks per requestor
system.cpu0.icache.tags.occ_percent::.cpu0.inst     0.838015                       # Average percentage of cache occupancy
system.cpu0.icache.tags.occ_percent::total     0.838015                       # Average percentage of cache occupancy
system.cpu0.icache.tags.occ_task_id_blocks::1024          431                       # Occupied blocks per task id
system.cpu0.icache.tags.age_task_id_blocks_1024::4          431                       # Occupied blocks per task id
system.cpu0.icache.tags.occ_task_id_percent::1024     0.841797                       # Percentage of cache occupancy per task id
system.cpu0.icache.tags.tag_accesses        311219257                       # Number of tag accesses
system.cpu0.icache.tags.data_accesses       311219257                       # Number of data accesses
system.cpu0.icache.tags.repl_invalid                0                       # Number of initial replacements
system.cpu0.icache.tags.repl_valid_tag              0                       # Number of local replacements
system.cpu0.icache.tags.repl_valid_data             0                       # Number of global replacements
system.cpu0.dtb.walker.pwrStateResidencyTicks::UNDEFINED 2904955112358                       # Cumulative time (in ticks) in various power states
system.cpu0.interrupts.clk_domain.clock          5328                       # Clock period in ticks
system.cpu0.itb_walker_cache.pwrStateResidencyTicks::UNDEFINED 2904955112358                       # Cumulative time (in ticks) in various power states
system.cpu0.itb_walker_cache.blocked_cycles::no_mshrs            0                       # number of cycles access was blocked
system.cpu0.itb_walker_cache.blocked_cycles::no_targets            0                       # number of cycles access was blocked
system.cpu0.itb_walker_cache.blocked::no_mshrs            0                       # number of cycles access was blocked
system.cpu0.itb_walker_cache.blocked::no_targets            0                       # number of cycles access was blocked
system.cpu0.itb_walker_cache.avg_blocked_cycles::no_mshrs          nan                       # average number of cycles each access was blocked
system.cpu0.itb_walker_cache.avg_blocked_cycles::no_targets          nan                       # average number of cycles each access was blocked
system.cpu0.itb_walker_cache.replacements            0                       # number of replacements
system.cpu0.itb_walker_cache.tags.pwrStateResidencyTicks::UNDEFINED 2904955112358                       # Cumulative time (in ticks) in various power states
system.cpu0.itb_walker_cache.tags.tagsinuse            0                       # Cycle average of tags in use
system.cpu0.itb_walker_cache.tags.total_refs            0                       # Total number of references to valid blocks.
system.cpu0.itb_walker_cache.tags.sampled_refs            0                       # Sample count of references to valid blocks.
system.cpu0.itb_walker_cache.tags.avg_refs          nan                       # Average number of references to valid blocks.
system.cpu0.itb_walker_cache.tags.warmup_cycle            0                       # Cycle when the warmup percentage was hit.
system.cpu0.itb_walker_cache.tags.tag_accesses            0                       # Number of tag accesses
system.cpu0.itb_walker_cache.tags.data_accesses            0                       # Number of data accesses
system.cpu0.itb_walker_cache.tags.repl_invalid            0                       # Number of initial replacements
system.cpu0.itb_walker_cache.tags.repl_valid_tag            0                       # Number of local replacements
system.cpu0.itb_walker_cache.tags.repl_valid_data            0                       # Number of global replacements
system.cpu0.itb.walker.pwrStateResidencyTicks::UNDEFINED 2904955112358                       # Cumulative time (in ticks) in various power states
system.cpu0.dtb_walker_cache.pwrStateResidencyTicks::UNDEFINED 2904955112358                       # Cumulative time (in ticks) in various power states
system.cpu0.dtb_walker_cache.blocked_cycles::no_mshrs            0                       # number of cycles access was blocked
system.cpu0.dtb_walker_cache.blocked_cycles::no_targets            0                       # number of cycles access was blocked
system.cpu0.dtb_walker_cache.blocked::no_mshrs            0                       # number of cycles access was blocked
system.cpu0.dtb_walker_cache.blocked::no_targets            0                       # number of cycles access was blocked
system.cpu0.dtb_walker_cache.avg_blocked_cycles::no_mshrs          nan                       # average number of cycles each access was blocked
system.cpu0.dtb_walker_cache.avg_blocked_cycles::no_targets          nan                       # average number of cycles each access was blocked
system.cpu0.dtb_walker_cache.replacements            0                       # number of replacements
system.cpu0.dtb_walker_cache.tags.pwrStateResidencyTicks::UNDEFINED 2904955112358                       # Cumulative time (in ticks) in various power states
system.cpu0.dtb_walker_cache.tags.tagsinuse            0                       # Cycle average of tags in use
system.cpu0.dtb_walker_cache.tags.total_refs            0                       # Total number of references to valid blocks.
system.cpu0.dtb_walker_cache.tags.sampled_refs            0                       # Sample count of references to valid blocks.
system.cpu0.dtb_walker_cache.tags.avg_refs          nan                       # Average number of references to valid blocks.
system.cpu0.dtb_walker_cache.tags.warmup_cycle            0                       # Cycle when the warmup percentage was hit.
system.cpu0.dtb_walker_cache.tags.tag_accesses            0                       # Number of tag accesses
system.cpu0.dtb_walker_cache.tags.data_accesses            0                       # Number of data accesses
system.cpu0.dtb_walker_cache.tags.repl_invalid            0                       # Number of initial replacements
system.cpu0.dtb_walker_cache.tags.repl_valid_tag            0                       # Number of local replacements
system.cpu0.dtb_walker_cache.tags.repl_valid_data            0                       # Number of global replacements
system.cpu0.dcache.pwrStateResidencyTicks::UNDEFINED 2904955112358                       # Cumulative time (in ticks) in various power states
system.cpu0.dcache.demand_hits::.cpu0.data     16322542                       # number of demand (read+write) hits
system.cpu0.dcache.demand_hits::total        16322542                       # number of demand (read+write) hits
system.cpu0.dcache.overall_hits::.cpu0.data     16322542                       # number of overall hits
system.cpu0.dcache.overall_hits::total       16322542                       # number of overall hits
system.cpu0.dcache.demand_misses::.cpu0.data       347916                       # number of demand (read+write) misses
system.cpu0.dcache.demand_misses::total        347916                       # number of demand (read+write) misses
system.cpu0.dcache.overall_misses::.cpu0.data       347916                       # number of overall misses
system.cpu0.dcache.overall_misses::total       347916                       # number of overall misses
system.cpu0.dcache.demand_miss_latency::.cpu0.data  30842922870                       # number of demand (read+write) miss cycles
system.cpu0.dcache.demand_miss_latency::total  30842922870                       # number of demand (read+write) miss cycles
system.cpu0.dcache.overall_miss_latency::.cpu0.data  30842922870                       # number of overall miss cycles
system.cpu0.dcache.overall_miss_latency::total  30842922870                       # number of overall miss cycles
system.cpu0.dcache.demand_accesses::.cpu0.data     16670458                       # number of demand (read+write) accesses
system.cpu0.dcache.demand_accesses::total     16670458                       # number of demand (read+write) accesses
system.cpu0.dcache.overall_accesses::.cpu0.data     16670458                       # number of overall (read+write) accesses
system.cpu0.dcache.overall_accesses::total     16670458                       # number of overall (read+write) accesses
system.cpu0.dcache.demand_miss_rate::.cpu0.data     0.020870                       # miss rate for demand accesses
system.cpu0.dcache.demand_miss_rate::total     0.020870                       # miss rate for demand accesses
system.cpu0.dcache.overall_miss_rate::.cpu0.data     0.020870                       # miss rate for overall accesses
system.cpu0.dcache.overall_miss_rate::total     0.020870                       # miss rate for overall accesses
system.cpu0.dcache.demand_avg_miss_latency::.cpu0.data 88650.487100                       # average overall miss latency
system.cpu0.dcache.demand_avg_miss_latency::total 88650.487100                       # average overall miss latency
system.cpu0.dcache.overall_avg_miss_latency::.cpu0.data 88650.487100                       # average overall miss latency
system.cpu0.dcache.overall_avg_miss_latency::total 88650.487100                       # average overall miss latency
system.cpu0.dcache.blocked_cycles::no_mshrs            0                       # number of cycles access was blocked
system.cpu0.dcache.blocked_cycles::no_targets            0                       # number of cycles access was blocked
system.cpu0.dcache.blocked::no_mshrs                0                       # number of cycles access was blocked
system.cpu0.dcache.blocked::no_targets              0                       # number of cycles access was blocked
system.cpu0.dcache.avg_blocked_cycles::no_mshrs          nan                       # average number of cycles each access was blocked
system.cpu0.dcache.avg_blocked_cycles::no_targets          nan                       # average number of cycles each access was blocked
system.cpu0.dcache.writebacks::.writebacks          514                       # number of writebacks
system.cpu0.dcache.writebacks::total              514                       # number of writebacks
system.cpu0.dcache.demand_mshr_misses::.cpu0.data       347916                       # number of demand (read+write) MSHR misses
system.cpu0.dcache.demand_mshr_misses::total       347916                       # number of demand (read+write) MSHR misses
system.cpu0.dcache.overall_mshr_misses::.cpu0.data       347916                       # number of overall MSHR misses
system.cpu0.dcache.overall_mshr_misses::total       347916                       # number of overall MSHR misses
system.cpu0.dcache.demand_mshr_miss_latency::.cpu0.data  30611210814                       # number of demand (read+write) MSHR miss cycles
system.cpu0.dcache.demand_mshr_miss_latency::total  30611210814                       # number of demand (read+write) MSHR miss cycles
system.cpu0.dcache.overall_mshr_miss_latency::.cpu0.data  30611210814                       # number of overall MSHR miss cycles
system.cpu0.dcache.overall_mshr_miss_latency::total  30611210814                       # number of overall MSHR miss cycles
system.cpu0.dcache.demand_mshr_miss_rate::.cpu0.data     0.020870                       # mshr miss rate for demand accesses
system.cpu0.dcache.demand_mshr_miss_rate::total     0.020870                       # mshr miss rate for demand accesses
system.cpu0.dcache.overall_mshr_miss_rate::.cpu0.data     0.020870                       # mshr miss rate for overall accesses
system.cpu0.dcache.overall_mshr_miss_rate::total     0.020870                       # mshr miss rate for overall accesses
system.cpu0.dcache.demand_avg_mshr_miss_latency::.cpu0.data 87984.487100                       # average overall mshr miss latency
system.cpu0.dcache.demand_avg_mshr_miss_latency::total 87984.487100                       # average overall mshr miss latency
system.cpu0.dcache.overall_avg_mshr_miss_latency::.cpu0.data 87984.487100                       # average overall mshr miss latency
system.cpu0.dcache.overall_avg_mshr_miss_latency::total 87984.487100                       # average overall mshr miss latency
system.cpu0.dcache.replacements                347908                       # number of replacements
system.cpu0.dcache.ReadReq_hits::.cpu0.data     10765403                       # number of ReadReq hits
system.cpu0.dcache.ReadReq_hits::total       10765403                       # number of ReadReq hits
system.cpu0.dcache.ReadReq_misses::.cpu0.data       347660                       # number of ReadReq misses
system.cpu0.dcache.ReadReq_misses::total       347660                       # number of ReadReq misses
system.cpu0.dcache.ReadReq_miss_latency::.cpu0.data  30830812992                       # number of ReadReq miss cycles
system.cpu0.dcache.ReadReq_miss_latency::total  30830812992                       # number of ReadReq miss cycles
system.cpu0.dcache.ReadReq_accesses::.cpu0.data     11113063                       # number of ReadReq accesses(hits+misses)
system.cpu0.dcache.ReadReq_accesses::total     11113063                       # number of ReadReq accesses(hits+misses)
system.cpu0.dcache.ReadReq_miss_rate::.cpu0.data     0.031284                       # miss rate for ReadReq accesses
system.cpu0.dcache.ReadReq_miss_rate::total     0.031284                       # miss rate for ReadReq accesses
system.cpu0.dcache.ReadReq_avg_miss_latency::.cpu0.data 88680.932497                       # average ReadReq miss latency
system.cpu0.dcache.ReadReq_avg_miss_latency::total 88680.932497                       # average ReadReq miss latency
system.cpu0.dcache.ReadReq_mshr_misses::.cpu0.data       347660                       # number of ReadReq MSHR misses
system.cpu0.dcache.ReadReq_mshr_misses::total       347660                       # number of ReadReq MSHR misses
system.cpu0.dcache.ReadReq_mshr_miss_latency::.cpu0.data  30599271432                       # number of ReadReq MSHR miss cycles
system.cpu0.dcache.ReadReq_mshr_miss_latency::total  30599271432                       # number of ReadReq MSHR miss cycles
system.cpu0.dcache.ReadReq_mshr_miss_rate::.cpu0.data     0.031284                       # mshr miss rate for ReadReq accesses
system.cpu0.dcache.ReadReq_mshr_miss_rate::total     0.031284                       # mshr miss rate for ReadReq accesses
system.cpu0.dcache.ReadReq_avg_mshr_miss_latency::.cpu0.data 88014.932497                       # average ReadReq mshr miss latency
system.cpu0.dcache.ReadReq_avg_mshr_miss_latency::total 88014.932497                       # average ReadReq mshr miss latency
system.cpu0.dcache.WriteReq_hits::.cpu0.data      5557139                       # number of WriteReq hits
system.cpu0.dcache.WriteReq_hits::total       5557139                       # number of WriteReq hits
system.cpu0.dcache.WriteReq_misses::.cpu0.data          256                       # number of WriteReq misses
system.cpu0.dcache.WriteReq_misses::total          256                       # number of WriteReq misses
system.cpu0.dcache.WriteReq_miss_latency::.cpu0.data     12109878                       # number of WriteReq miss cycles
system.cpu0.dcache.WriteReq_miss_latency::total     12109878                       # number of WriteReq miss cycles
system.cpu0.dcache.WriteReq_accesses::.cpu0.data      5557395                       # number of WriteReq accesses(hits+misses)
system.cpu0.dcache.WriteReq_accesses::total      5557395                       # number of WriteReq accesses(hits+misses)
system.cpu0.dcache.WriteReq_miss_rate::.cpu0.data     0.000046                       # miss rate for WriteReq accesses
system.cpu0.dcache.WriteReq_miss_rate::total     0.000046                       # miss rate for WriteReq accesses
system.cpu0.dcache.WriteReq_avg_miss_latency::.cpu0.data 47304.210938                       # average WriteReq miss latency
system.cpu0.dcache.WriteReq_avg_miss_latency::total 47304.210938                       # average WriteReq miss latency
system.cpu0.dcache.WriteReq_mshr_misses::.cpu0.data          256                       # number of WriteReq MSHR misses
system.cpu0.dcache.WriteReq_mshr_misses::total          256                       # number of WriteReq MSHR misses
system.cpu0.dcache.WriteReq_mshr_miss_latency::.cpu0.data     11939382                       # number of WriteReq MSHR miss cycles
system.cpu0.dcache.WriteReq_mshr_miss_latency::total     11939382                       # number of WriteReq MSHR miss cycles
system.cpu0.dcache.WriteReq_mshr_miss_rate::.cpu0.data     0.000046                       # mshr miss rate for WriteReq accesses
system.cpu0.dcache.WriteReq_mshr_miss_rate::total     0.000046                       # mshr miss rate for WriteReq accesses
system.cpu0.dcache.WriteReq_avg_mshr_miss_latency::.cpu0.data 46638.210938                       # average WriteReq mshr miss latency
system.cpu0.dcache.WriteReq_avg_mshr_miss_latency::total 46638.210938                       # average WriteReq mshr miss latency
system.cpu0.dcache.tags.pwrStateResidencyTicks::UNDEFINED 2904955112358                       # Cumulative time (in ticks) in various power states
system.cpu0.dcache.tags.tagsinuse            7.999998                       # Cycle average of tags in use
system.cpu0.dcache.tags.total_refs           16670458                       # Total number of references to valid blocks.
system.cpu0.dcache.tags.sampled_refs           347916                       # Sample count of references to valid blocks.
system.cpu0.dcache.tags.avg_refs            47.915181                       # Average number of references to valid blocks.
system.cpu0.dcache.tags.warmup_cycle           166167                       # Cycle when the warmup percentage was hit.
system.cpu0.dcache.tags.occ_blocks::.cpu0.data     7.999998                       # Average occupied blocks per requestor
system.cpu0.dcache.tags.occ_percent::.cpu0.data     1.000000                       # Average percentage of cache occupancy
system.cpu0.dcache.tags.occ_percent::total     1.000000                       # Average percentage of cache occupancy
system.cpu0.dcache.tags.occ_task_id_blocks::1024            8                       # Occupied blocks per task id
system.cpu0.dcache.tags.age_task_id_blocks_1024::4            8                       # Occupied blocks per task id
system.cpu0.dcache.tags.occ_task_id_percent::1024            1                       # Percentage of cache occupancy per task id
system.cpu0.dcache.tags.tag_accesses        133711580                       # Number of tag accesses
system.cpu0.dcache.tags.data_accesses       133711580                       # Number of data accesses
system.cpu0.dcache.tags.repl_invalid                0                       # Number of initial replacements
system.cpu0.dcache.tags.repl_valid_tag              0                       # Number of local replacements
system.cpu0.dcache.tags.repl_valid_data             0                       # Number of global replacements
system.cpu1.numPwrStateTransitions                  1                       # Number of power state transitions
system.cpu1.pwrStateResidencyTicks::ON   2904955112358                       # Cumulative time (in ticks) in various power states
system.cpu1.icache.pwrStateResidencyTicks::UNDEFINED 2904955112358                       # Cumulative time (in ticks) in various power states
system.cpu1.icache.demand_hits::.cpu1.inst   1278068172                       # number of demand (read+write) hits
system.cpu1.icache.demand_hits::total      1278068172                       # number of demand (read+write) hits
system.cpu1.icache.overall_hits::.cpu1.inst   1278068172                       # number of overall hits
system.cpu1.icache.overall_hits::total     1278068172                       # number of overall hits
system.cpu1.icache.demand_misses::.cpu1.inst          816                       # number of demand (read+write) misses
system.cpu1.icache.demand_misses::total           816                       # number of demand (read+write) misses
system.cpu1.icache.overall_misses::.cpu1.inst          816                       # number of overall misses
system.cpu1.icache.overall_misses::total          816                       # number of overall misses
system.cpu1.icache.demand_miss_latency::.cpu1.inst     69730866                       # number of demand (read+write) miss cycles
system.cpu1.icache.demand_miss_latency::total     69730866                       # number of demand (read+write) miss cycles
system.cpu1.icache.overall_miss_latency::.cpu1.inst     69730866                       # number of overall miss cycles
system.cpu1.icache.overall_miss_latency::total     69730866                       # number of overall miss cycles
system.cpu1.icache.demand_accesses::.cpu1.inst   1278068988                       # number of demand (read+write) accesses
system.cpu1.icache.demand_accesses::total   1278068988                       # number of demand (read+write) accesses
system.cpu1.icache.overall_accesses::.cpu1.inst   1278068988                       # number of overall (read+write) accesses
system.cpu1.icache.overall_accesses::total   1278068988                       # number of overall (read+write) accesses
system.cpu1.icache.demand_miss_rate::.cpu1.inst     0.000001                       # miss rate for demand accesses
system.cpu1.icache.demand_miss_rate::total     0.000001                       # miss rate for demand accesses
system.cpu1.icache.overall_miss_rate::.cpu1.inst     0.000001                       # miss rate for overall accesses
system.cpu1.icache.overall_miss_rate::total     0.000001                       # miss rate for overall accesses
system.cpu1.icache.demand_avg_miss_latency::.cpu1.inst 85454.492647                       # average overall miss latency
system.cpu1.icache.demand_avg_miss_latency::total 85454.492647                       # average overall miss latency
system.cpu1.icache.overall_avg_miss_latency::.cpu1.inst 85454.492647                       # average overall miss latency
system.cpu1.icache.overall_avg_miss_latency::total 85454.492647                       # average overall miss latency
system.cpu1.icache.blocked_cycles::no_mshrs            0                       # number of cycles access was blocked
system.cpu1.icache.blocked_cycles::no_targets            0                       # number of cycles access was blocked
system.cpu1.icache.blocked::no_mshrs                0                       # number of cycles access was blocked
system.cpu1.icache.blocked::no_targets              0                       # number of cycles access was blocked
system.cpu1.icache.avg_blocked_cycles::no_mshrs          nan                       # average number of cycles each access was blocked
system.cpu1.icache.avg_blocked_cycles::no_targets          nan                       # average number of cycles each access was blocked
system.cpu1.icache.writebacks::.writebacks          304                       # number of writebacks
system.cpu1.icache.writebacks::total              304                       # number of writebacks
system.cpu1.icache.demand_mshr_misses::.cpu1.inst          816                       # number of demand (read+write) MSHR misses
system.cpu1.icache.demand_mshr_misses::total          816                       # number of demand (read+write) MSHR misses
system.cpu1.icache.overall_mshr_misses::.cpu1.inst          816                       # number of overall MSHR misses
system.cpu1.icache.overall_mshr_misses::total          816                       # number of overall MSHR misses
system.cpu1.icache.demand_mshr_miss_latency::.cpu1.inst     69187410                       # number of demand (read+write) MSHR miss cycles
system.cpu1.icache.demand_mshr_miss_latency::total     69187410                       # number of demand (read+write) MSHR miss cycles
system.cpu1.icache.overall_mshr_miss_latency::.cpu1.inst     69187410                       # number of overall MSHR miss cycles
system.cpu1.icache.overall_mshr_miss_latency::total     69187410                       # number of overall MSHR miss cycles
system.cpu1.icache.demand_mshr_miss_rate::.cpu1.inst     0.000001                       # mshr miss rate for demand accesses
system.cpu1.icache.demand_mshr_miss_rate::total     0.000001                       # mshr miss rate for demand accesses
system.cpu1.icache.overall_mshr_miss_rate::.cpu1.inst     0.000001                       # mshr miss rate for overall accesses
system.cpu1.icache.overall_mshr_miss_rate::total     0.000001                       # mshr miss rate for overall accesses
system.cpu1.icache.demand_avg_mshr_miss_latency::.cpu1.inst 84788.492647                       # average overall mshr miss latency
system.cpu1.icache.demand_avg_mshr_miss_latency::total 84788.492647                       # average overall mshr miss latency
system.cpu1.icache.overall_avg_mshr_miss_latency::.cpu1.inst 84788.492647                       # average overall mshr miss latency
system.cpu1.icache.overall_avg_mshr_miss_latency::total 84788.492647                       # average overall mshr miss latency
system.cpu1.icache.replacements                   304                       # number of replacements
system.cpu1.icache.ReadReq_hits::.cpu1.inst   1278068172                       # number of ReadReq hits
system.cpu1.icache.ReadReq_hits::total     1278068172                       # number of ReadReq hits
system.cpu1.icache.ReadReq_misses::.cpu1.inst          816                       # number of ReadReq misses
system.cpu1.icache.ReadReq_misses::total          816                       # number of ReadReq misses
system.cpu1.icache.ReadReq_miss_latency::.cpu1.inst     69730866                       # number of ReadReq miss cycles
system.cpu1.icache.ReadReq_miss_latency::total     69730866                       # number of ReadReq miss cycles
system.cpu1.icache.ReadReq_accesses::.cpu1.inst   1278068988                       # number of ReadReq accesses(hits+misses)
system.cpu1.icache.ReadReq_accesses::total   1278068988                       # number of ReadReq accesses(hits+misses)
system.cpu1.icache.ReadReq_miss_rate::.cpu1.inst     0.000001                       # miss rate for ReadReq accesses
system.cpu1.icache.ReadReq_miss_rate::total     0.000001                       # miss rate for ReadReq accesses
system.cpu1.icache.ReadReq_avg_miss_latency::.cpu1.inst 85454.492647                       # average ReadReq miss latency
system.cpu1.icache.ReadReq_avg_miss_latency::total 85454.492647                       # average ReadReq miss latency
system.cpu1.icache.ReadReq_mshr_misses::.cpu1.inst          816                       # number of ReadReq MSHR misses
system.cpu1.icache.ReadReq_mshr_misses::total          816                       # number of ReadReq MSHR misses
system.cpu1.icache.ReadReq_mshr_miss_latency::.cpu1.inst     69187410                       # number of ReadReq MSHR miss cycles
system.cpu1.icache.ReadReq_mshr_miss_latency::total     69187410                       # number of ReadReq MSHR miss cycles
system.cpu1.icache.ReadReq_mshr_miss_rate::.cpu1.inst     0.000001                       # mshr miss rate for ReadReq accesses
system.cpu1.icache.ReadReq_mshr_miss_rate::total     0.000001                       # mshr miss rate for ReadReq accesses
system.cpu1.icache.ReadReq_avg_mshr_miss_latency::.cpu1.inst 84788.492647                       # average ReadReq mshr miss latency
system.cpu1.icache.ReadReq_avg_mshr_miss_latency::total 84788.492647                       # average ReadReq mshr miss latency
system.cpu1.icache.tags.pwrStateResidencyTicks::UNDEFINED 2904955112358                       # Cumulative time (in ticks) in various power states
system.cpu1.icache.tags.tagsinuse          507.631768                       # Cycle average of tags in use
system.cpu1.icache.tags.total_refs         1278068988                       # Total number of references to valid blocks.
system.cpu1.icache.tags.sampled_refs              816                       # Sample count of references to valid blocks.
system.cpu1.icache.tags.avg_refs         1566261.014706                       # Average number of references to valid blocks.
system.cpu1.icache.tags.warmup_cycle            88245                       # Cycle when the warmup percentage was hit.
system.cpu1.icache.tags.occ_blocks::.cpu1.inst   507.631768                       # Average occupied blocks per requestor
system.cpu1.icache.tags.occ_percent::.cpu1.inst     0.991468                       # Average percentage of cache occupancy
system.cpu1.icache.tags.occ_percent::total     0.991468                       # Average percentage of cache occupancy
system.cpu1.icache.tags.occ_task_id_blocks::1024          512                       # Occupied blocks per task id
system.cpu1.icache.tags.age_task_id_blocks_1024::4          512                       # Occupied blocks per task id
system.cpu1.icache.tags.occ_task_id_percent::1024            1                       # Percentage of cache occupancy per task id
system.cpu1.icache.tags.tag_accesses      10224552720                       # Number of tag accesses
system.cpu1.icache.tags.data_accesses     10224552720                       # Number of data accesses
system.cpu1.icache.tags.repl_invalid                0                       # Number of initial replacements
system.cpu1.icache.tags.repl_valid_tag              0                       # Number of local replacements
system.cpu1.icache.tags.repl_valid_data             0                       # Number of global replacements
system.cpu1.dtb.walker.pwrStateResidencyTicks::UNDEFINED 2904955112358                       # Cumulative time (in ticks) in various power states
system.cpu1.interrupts.clk_domain.clock          5328                       # Clock period in ticks
system.cpu1.itb_walker_cache.pwrStateResidencyTicks::UNDEFINED 2904955112358                       # Cumulative time (in ticks) in various power states
system.cpu1.itb_walker_cache.blocked_cycles::no_mshrs            0                       # number of cycles access was blocked
system.cpu1.itb_walker_cache.blocked_cycles::no_targets            0                       # number of cycles access was blocked
system.cpu1.itb_walker_cache.blocked::no_mshrs            0                       # number of cycles access was blocked
system.cpu1.itb_walker_cache.blocked::no_targets            0                       # number of cycles access was blocked
system.cpu1.itb_walker_cache.avg_blocked_cycles::no_mshrs          nan                       # average number of cycles each access was blocked
system.cpu1.itb_walker_cache.avg_blocked_cycles::no_targets          nan                       # average number of cycles each access was blocked
system.cpu1.itb_walker_cache.replacements            0                       # number of replacements
system.cpu1.itb_walker_cache.tags.pwrStateResidencyTicks::UNDEFINED 2904955112358                       # Cumulative time (in ticks) in various power states
system.cpu1.itb_walker_cache.tags.tagsinuse            0                       # Cycle average of tags in use
system.cpu1.itb_walker_cache.tags.total_refs            0                       # Total number of references to valid blocks.
system.cpu1.itb_walker_cache.tags.sampled_refs            0                       # Sample count of references to valid blocks.
system.cpu1.itb_walker_cache.tags.avg_refs          nan                       # Average number of references to valid blocks.
system.cpu1.itb_walker_cache.tags.warmup_cycle            0                       # Cycle when the warmup percentage was hit.
system.cpu1.itb_walker_cache.tags.tag_accesses            0                       # Number of tag accesses
system.cpu1.itb_walker_cache.tags.data_accesses            0                       # Number of data accesses
system.cpu1.itb_walker_cache.tags.repl_invalid            0                       # Number of initial replacements
system.cpu1.itb_walker_cache.tags.repl_valid_tag            0                       # Number of local replacements
system.cpu1.itb_walker_cache.tags.repl_valid_data            0                       # Number of global replacements
system.cpu1.itb.walker.pwrStateResidencyTicks::UNDEFINED 2904955112358                       # Cumulative time (in ticks) in various power states
system.cpu1.dtb_walker_cache.pwrStateResidencyTicks::UNDEFINED 2904955112358                       # Cumulative time (in ticks) in various power states
system.cpu1.dtb_walker_cache.blocked_cycles::no_mshrs            0                       # number of cycles access was blocked
system.cpu1.dtb_walker_cache.blocked_cycles::no_targets            0                       # number of cycles access was blocked
system.cpu1.dtb_walker_cache.blocked::no_mshrs            0                       # number of cycles access was blocked
system.cpu1.dtb_walker_cache.blocked::no_targets            0                       # number of cycles access was blocked
system.cpu1.dtb_walker_cache.avg_blocked_cycles::no_mshrs          nan                       # average number of cycles each access was blocked
system.cpu1.dtb_walker_cache.avg_blocked_cycles::no_targets          nan                       # average number of cycles each access was blocked
system.cpu1.dtb_walker_cache.replacements            0                       # number of replacements
system.cpu1.dtb_walker_cache.tags.pwrStateResidencyTicks::UNDEFINED 2904955112358                       # Cumulative time (in ticks) in various power states
system.cpu1.dtb_walker_cache.tags.tagsinuse            0                       # Cycle average of tags in use
system.cpu1.dtb_walker_cache.tags.total_refs            0                       # Total number of references to valid blocks.
system.cpu1.dtb_walker_cache.tags.sampled_refs            0                       # Sample count of references to valid blocks.
system.cpu1.dtb_walker_cache.tags.avg_refs          nan                       # Average number of references to valid blocks.
system.cpu1.dtb_walker_cache.tags.warmup_cycle            0                       # Cycle when the warmup percentage was hit.
system.cpu1.dtb_walker_cache.tags.tag_accesses            0                       # Number of tag accesses
system.cpu1.dtb_walker_cache.tags.data_accesses            0                       # Number of data accesses
system.cpu1.dtb_walker_cache.tags.repl_invalid            0                       # Number of initial replacements
system.cpu1.dtb_walker_cache.tags.repl_valid_tag            0                       # Number of local replacements
system.cpu1.dtb_walker_cache.tags.repl_valid_data            0                       # Number of global replacements
system.cpu1.dcache.pwrStateResidencyTicks::UNDEFINED 2904955112358                       # Cumulative time (in ticks) in various power states
system.cpu1.dcache.demand_hits::.cpu1.data    292190749                       # number of demand (read+write) hits
system.cpu1.dcache.demand_hits::total       292190749                       # number of demand (read+write) hits
system.cpu1.dcache.overall_hits::.cpu1.data    292190749                       # number of overall hits
system.cpu1.dcache.overall_hits::total      292190749                       # number of overall hits
system.cpu1.dcache.demand_misses::.cpu1.data    123976326                       # number of demand (read+write) misses
system.cpu1.dcache.demand_misses::total     123976326                       # number of demand (read+write) misses
system.cpu1.dcache.overall_misses::.cpu1.data    123976326                       # number of overall misses
system.cpu1.dcache.overall_misses::total    123976326                       # number of overall misses
system.cpu1.dcache.demand_miss_latency::.cpu1.data 1859106127905                       # number of demand (read+write) miss cycles
system.cpu1.dcache.demand_miss_latency::total 1859106127905                       # number of demand (read+write) miss cycles
system.cpu1.dcache.overall_miss_latency::.cpu1.data 1859106127905                       # number of overall miss cycles
system.cpu1.dcache.overall_miss_latency::total 1859106127905                       # number of overall miss cycles
system.cpu1.dcache.demand_accesses::.cpu1.data    416167075                       # number of demand (read+write) accesses
system.cpu1.dcache.demand_accesses::total    416167075                       # number of demand (read+write) accesses
system.cpu1.dcache.overall_accesses::.cpu1.data    416167075                       # number of overall (read+write) accesses
system.cpu1.dcache.overall_accesses::total    416167075                       # number of overall (read+write) accesses
system.cpu1.dcache.demand_miss_rate::.cpu1.data     0.297900                       # miss rate for demand accesses
system.cpu1.dcache.demand_miss_rate::total     0.297900                       # miss rate for demand accesses
system.cpu1.dcache.overall_miss_rate::.cpu1.data     0.297900                       # miss rate for overall accesses
system.cpu1.dcache.overall_miss_rate::total     0.297900                       # miss rate for overall accesses
system.cpu1.dcache.demand_avg_miss_latency::.cpu1.data 14995.654315                       # average overall miss latency
system.cpu1.dcache.demand_avg_miss_latency::total 14995.654315                       # average overall miss latency
system.cpu1.dcache.overall_avg_miss_latency::.cpu1.data 14995.654315                       # average overall miss latency
system.cpu1.dcache.overall_avg_miss_latency::total 14995.654315                       # average overall miss latency
system.cpu1.dcache.blocked_cycles::no_mshrs            0                       # number of cycles access was blocked
system.cpu1.dcache.blocked_cycles::no_targets            0                       # number of cycles access was blocked
system.cpu1.dcache.blocked::no_mshrs                0                       # number of cycles access was blocked
system.cpu1.dcache.blocked::no_targets              0                       # number of cycles access was blocked
system.cpu1.dcache.avg_blocked_cycles::no_mshrs          nan                       # average number of cycles each access was blocked
system.cpu1.dcache.avg_blocked_cycles::no_targets          nan                       # average number of cycles each access was blocked
system.cpu1.dcache.writebacks::.writebacks     98604076                       # number of writebacks
system.cpu1.dcache.writebacks::total         98604076                       # number of writebacks
system.cpu1.dcache.demand_mshr_misses::.cpu1.data    123976326                       # number of demand (read+write) MSHR misses
system.cpu1.dcache.demand_mshr_misses::total    123976326                       # number of demand (read+write) MSHR misses
system.cpu1.dcache.overall_mshr_misses::.cpu1.data    123976326                       # number of overall MSHR misses
system.cpu1.dcache.overall_mshr_misses::total    123976326                       # number of overall MSHR misses
system.cpu1.dcache.demand_mshr_miss_latency::.cpu1.data 1776537894789                       # number of demand (read+write) MSHR miss cycles
system.cpu1.dcache.demand_mshr_miss_latency::total 1776537894789                       # number of demand (read+write) MSHR miss cycles
system.cpu1.dcache.overall_mshr_miss_latency::.cpu1.data 1776537894789                       # number of overall MSHR miss cycles
system.cpu1.dcache.overall_mshr_miss_latency::total 1776537894789                       # number of overall MSHR miss cycles
system.cpu1.dcache.demand_mshr_miss_rate::.cpu1.data     0.297900                       # mshr miss rate for demand accesses
system.cpu1.dcache.demand_mshr_miss_rate::total     0.297900                       # mshr miss rate for demand accesses
system.cpu1.dcache.overall_mshr_miss_rate::.cpu1.data     0.297900                       # mshr miss rate for overall accesses
system.cpu1.dcache.overall_mshr_miss_rate::total     0.297900                       # mshr miss rate for overall accesses
system.cpu1.dcache.demand_avg_mshr_miss_latency::.cpu1.data 14329.654315                       # average overall mshr miss latency
system.cpu1.dcache.demand_avg_mshr_miss_latency::total 14329.654315                       # average overall mshr miss latency
system.cpu1.dcache.overall_avg_mshr_miss_latency::.cpu1.data 14329.654315                       # average overall mshr miss latency
system.cpu1.dcache.overall_avg_mshr_miss_latency::total 14329.654315                       # average overall mshr miss latency
system.cpu1.dcache.replacements             123976318                       # number of replacements
system.cpu1.dcache.ReadReq_hits::.cpu1.data    190074531                       # number of ReadReq hits
system.cpu1.dcache.ReadReq_hits::total      190074531                       # number of ReadReq hits
system.cpu1.dcache.ReadReq_misses::.cpu1.data    111315830                       # number of ReadReq misses
system.cpu1.dcache.ReadReq_misses::total    111315830                       # number of ReadReq misses
system.cpu1.dcache.ReadReq_miss_latency::.cpu1.data 1690888829256                       # number of ReadReq miss cycles
system.cpu1.dcache.ReadReq_miss_latency::total 1690888829256                       # number of ReadReq miss cycles
system.cpu1.dcache.ReadReq_accesses::.cpu1.data    301390361                       # number of ReadReq accesses(hits+misses)
system.cpu1.dcache.ReadReq_accesses::total    301390361                       # number of ReadReq accesses(hits+misses)
system.cpu1.dcache.ReadReq_miss_rate::.cpu1.data     0.369341                       # miss rate for ReadReq accesses
system.cpu1.dcache.ReadReq_miss_rate::total     0.369341                       # miss rate for ReadReq accesses
system.cpu1.dcache.ReadReq_avg_miss_latency::.cpu1.data 15190.012321                       # average ReadReq miss latency
system.cpu1.dcache.ReadReq_avg_miss_latency::total 15190.012321                       # average ReadReq miss latency
system.cpu1.dcache.ReadReq_mshr_misses::.cpu1.data    111315830                       # number of ReadReq MSHR misses
system.cpu1.dcache.ReadReq_mshr_misses::total    111315830                       # number of ReadReq MSHR misses
system.cpu1.dcache.ReadReq_mshr_miss_latency::.cpu1.data 1616752486476                       # number of ReadReq MSHR miss cycles
system.cpu1.dcache.ReadReq_mshr_miss_latency::total 1616752486476                       # number of ReadReq MSHR miss cycles
system.cpu1.dcache.ReadReq_mshr_miss_rate::.cpu1.data     0.369341                       # mshr miss rate for ReadReq accesses
system.cpu1.dcache.ReadReq_mshr_miss_rate::total     0.369341                       # mshr miss rate for ReadReq accesses
system.cpu1.dcache.ReadReq_avg_mshr_miss_latency::.cpu1.data 14524.012321                       # average ReadReq mshr miss latency
system.cpu1.dcache.ReadReq_avg_mshr_miss_latency::total 14524.012321                       # average ReadReq mshr miss latency
system.cpu1.dcache.WriteReq_hits::.cpu1.data    102116218                       # number of WriteReq hits
system.cpu1.dcache.WriteReq_hits::total     102116218                       # number of WriteReq hits
system.cpu1.dcache.WriteReq_misses::.cpu1.data     12660496                       # number of WriteReq misses
system.cpu1.dcache.WriteReq_misses::total     12660496                       # number of WriteReq misses
[...]
system.mem_ctrls.wrQLenPdf::115                     0                       # What write queue length does an incoming req see
system.mem_ctrls.wrQLenPdf::116                     0                       # What write queue length does an incoming req see
system.mem_ctrls.wrQLenPdf::117                     0                       # What write queue length does an incoming req see
system.mem_ctrls.wrQLenPdf::118                     0                       # What write queue length does an incoming req see
system.mem_ctrls.wrQLenPdf::119                     0                       # What write queue length does an incoming req see
system.mem_ctrls.wrQLenPdf::120                     0                       # What write queue length does an incoming req see
system.mem_ctrls.wrQLenPdf::121                     0                       # What write queue length does an incoming req see
system.mem_ctrls.wrQLenPdf::122                     0                       # What write queue length does an incoming req see
system.mem_ctrls.wrQLenPdf::123                     0                       # What write queue length does an incoming req see
system.mem_ctrls.wrQLenPdf::124                     0                       # What write queue length does an incoming req see
system.mem_ctrls.wrQLenPdf::125                     0                       # What write queue length does an incoming req see
system.mem_ctrls.wrQLenPdf::126                     0                       # What write queue length does an incoming req see
system.mem_ctrls.wrQLenPdf::127                     0                       # What write queue length does an incoming req see
system.mem_ctrls.bytesPerActivate::samples      6007833                       # Bytes accessed per row activation
system.mem_ctrls.bytesPerActivate::mean            64                       # Bytes accessed per row activation
system.mem_ctrls.bytesPerActivate::gmean    64.000000                       # Bytes accessed per row activation
system.mem_ctrls.bytesPerActivate::64-71      6007833    100.00%    100.00% # Bytes accessed per row activation
system.mem_ctrls.bytesPerActivate::total      6007833                       # Bytes accessed per row activation
system.mem_ctrls.rdPerTurnAround::samples        17686                       # Reads before turning the bus around for writes
system.mem_ctrls.rdPerTurnAround::mean     321.985129                       # Reads before turning the bus around for writes
system.mem_ctrls.rdPerTurnAround::gmean     42.661036                       # Reads before turning the bus around for writes
system.mem_ctrls.rdPerTurnAround::stdev   1794.019619                       # Reads before turning the bus around for writes
system.mem_ctrls.rdPerTurnAround::0-4095        17121     96.81%     96.81% # Reads before turning the bus around for writes
system.mem_ctrls.rdPerTurnAround::4096-8191          323      1.83%     98.63% # Reads before turning the bus around for writes
system.mem_ctrls.rdPerTurnAround::8192-12287          226      1.28%     99.91% # Reads before turning the bus around for writes
system.mem_ctrls.rdPerTurnAround::12288-16383           15      0.08%     99.99% # Reads before turning the bus around for writes
system.mem_ctrls.rdPerTurnAround::139264-143359            1      0.01%    100.00% # Reads before turning the bus around for writes
system.mem_ctrls.rdPerTurnAround::total         17686                       # Reads before turning the bus around for writes
system.mem_ctrls.wrPerTurnAround::samples        17686                       # Writes before turning the bus around for reads
system.mem_ctrls.wrPerTurnAround::mean      17.401278                       # Writes before turning the bus around for reads
system.mem_ctrls.wrPerTurnAround::gmean     17.377056                       # Writes before turning the bus around for reads
system.mem_ctrls.wrPerTurnAround::stdev      0.903896                       # Writes before turning the bus around for reads
system.mem_ctrls.wrPerTurnAround::16             5078     28.71%     28.71% # Writes before turning the bus around for reads
system.mem_ctrls.wrPerTurnAround::17              455      2.57%     31.28% # Writes before turning the bus around for reads
system.mem_ctrls.wrPerTurnAround::18            12131     68.59%     99.88% # Writes before turning the bus around for reads
system.mem_ctrls.wrPerTurnAround::19               22      0.12%    100.00% # Writes before turning the bus around for reads
system.mem_ctrls.wrPerTurnAround::total         17686                       # Writes before turning the bus around for reads
system.mem_ctrls.bytesReadDRAM              364804736                       # Total number of bytes read from DRAM
system.mem_ctrls.bytesReadWrQ                  303872                       # Total number of bytes read from write queue
system.mem_ctrls.bytesWritten                19696576                       # Total number of bytes written to DRAM
system.mem_ctrls.bytesReadSys               365108608                       # Total read bytes from the system interface side
system.mem_ctrls.bytesWrittenSys             19700288                       # Total written bytes from the system interface side
system.mem_ctrls.avgRdBW                       125.58                       # Average DRAM read bandwidth in MiByte/s
system.mem_ctrls.avgWrBW                         6.78                       # Average achieved write bandwidth in MiByte/s
system.mem_ctrls.avgRdBWSys                    125.68                       # Average system read bandwidth in MiByte/s
system.mem_ctrls.avgWrBWSys                      6.78                       # Average system write bandwidth in MiByte/s
system.mem_ctrls.peakBW                      19207.00                       # Theoretical peak bandwidth in MiByte/s
system.mem_ctrls.busUtil                         0.69                       # Data bus utilization in percentage
system.mem_ctrls.busUtilRead                     0.65                       # Data bus utilization in percentage for reads
system.mem_ctrls.busUtilWrite                    0.04                       # Data bus utilization in percentage for writes
system.mem_ctrls.totGap                  2904530104791                       # Total gap between requests
system.mem_ctrls.avgGap                     483070.76                       # Average gap between requests
system.mem_ctrls.masterReadBytes::.cpu0.inst        28736                       # Per-master bytes read from memory
system.mem_ctrls.masterReadBytes::.cpu0.data     22238464                       # Per-master bytes read from memory
system.mem_ctrls.masterReadBytes::.cpu1.inst        51712                       # Per-master bytes read from memory
system.mem_ctrls.masterReadBytes::.cpu1.data    342485824                       # Per-master bytes read from memory
system.mem_ctrls.masterWriteBytes::.writebacks     19696576                       # Per-master bytes write to memory
system.mem_ctrls.masterReadRate::.cpu0.inst 9892.063349878930                       # Per-master bytes read from memory rate (Bytes/sec)
system.mem_ctrls.masterReadRate::.cpu0.data 7655355.466731694527                       # Per-master bytes read from memory rate (Bytes/sec)
system.mem_ctrls.masterReadRate::.cpu1.inst 17801.307765483685                       # Per-master bytes read from memory rate (Bytes/sec)
system.mem_ctrls.masterReadRate::.cpu1.data 117897113.983974307775                       # Per-master bytes read from memory rate (Bytes/sec)
system.mem_ctrls.masterWriteRate::.writebacks 6780337.471036502160                       # Per-master bytes write to memory rate (Bytes/sec)
system.mem_ctrls.masterReadAccesses::.cpu0.inst          449                       # Per-master read serviced memory accesses
system.mem_ctrls.masterReadAccesses::.cpu0.data       347476                       # Per-master read serviced memory accesses
system.mem_ctrls.masterReadAccesses::.cpu1.inst          808                       # Per-master read serviced memory accesses
system.mem_ctrls.masterReadAccesses::.cpu1.data      5356089                       # Per-master read serviced memory accesses
system.mem_ctrls.masterWriteAccesses::.writebacks       307817                       # Per-master write serviced memory accesses
system.mem_ctrls.masterReadTotalLat::.cpu0.inst     16386622                       # Per-master read total memory access latency
system.mem_ctrls.masterReadTotalLat::.cpu0.data  13987315212                       # Per-master read total memory access latency
system.mem_ctrls.masterReadTotalLat::.cpu1.inst     30273346                       # Per-master read total memory access latency
system.mem_ctrls.masterReadTotalLat::.cpu1.data 202045186520                       # Per-master read total memory access latency
system.mem_ctrls.masterWriteTotalLat::.writebacks 160042423235731                       # Per-master write total memory access latency
system.mem_ctrls.masterReadAvgLat::.cpu0.inst     36495.82                       # Per-master read average memory access latency
system.mem_ctrls.masterReadAvgLat::.cpu0.data     40254.05                       # Per-master read average memory access latency
system.mem_ctrls.masterReadAvgLat::.cpu1.inst     37467.01                       # Per-master read average memory access latency
system.mem_ctrls.masterReadAvgLat::.cpu1.data     37722.52                       # Per-master read average memory access latency
system.mem_ctrls.masterWriteAvgLat::.writebacks 519927175.03                       # Per-master write average memory access latency
system.mem_ctrls.pageHitRate                     0.00                       # Row buffer hit rate, read and write combined
system.mem_ctrls.rank1.actEnergy         4686475339.726657                       # Energy for activate commands per rank (pJ)
system.mem_ctrls.rank1.preEnergy         8273431465.137171                       # Energy for precharge commands per rank (pJ)
system.mem_ctrls.rank1.readEnergy        7821037845.014327                       # Energy for read commands per rank (pJ)
system.mem_ctrls.rank1.writeEnergy       363247442.880034                       # Energy for write commands per rank (pJ)
system.mem_ctrls.rank1.refreshEnergy     252166436543.639343                       # Energy for refresh commands per rank (pJ)
system.mem_ctrls.rank1.actBackEnergy     103199317664.682907                       # Energy for active background per rank (pJ)
system.mem_ctrls.rank1.preBackEnergy     876933149876.583862                       # Energy for precharge background per rank (pJ)
system.mem_ctrls.rank1.actPowerDownEnergy            0                       # Energy for active power-down per rank (pJ)
system.mem_ctrls.rank1.prePowerDownEnergy            0                       # Energy for precharge power-down per rank (pJ)
system.mem_ctrls.rank1.selfRefreshEnergy            0                       # Energy for self refresh per rank (pJ)
system.mem_ctrls.rank1.totalEnergy       1253443096185.326660                       # Total energy per rank (pJ)
system.mem_ctrls.rank1.averagePower        431.484497                       # Core power per rank (mW)
system.mem_ctrls.rank1.totalIdleTime                0                       # Total Idle time Per DRAM Rank
system.mem_ctrls.rank1.memoryStateTime::IDLE 2641226783987                       # Time in different power states
system.mem_ctrls.rank1.memoryStateTime::REF 130587450000                       # Time in different power states
system.mem_ctrls.rank1.memoryStateTime::SREF            0                       # Time in different power states
system.mem_ctrls.rank1.memoryStateTime::PRE_PDN            0                       # Time in different power states
system.mem_ctrls.rank1.memoryStateTime::ACT 133140878371                       # Time in different power states
system.mem_ctrls.rank1.memoryStateTime::ACT_PDN            0                       # Time in different power states
system.mem_ctrls.rank0.actEnergy         4681995252.478580                       # Energy for activate commands per rank (pJ)
system.mem_ctrls.rank0.preEnergy         8265522388.033813                       # Energy for precharge commands per rank (pJ)
system.mem_ctrls.rank0.readEnergy        7813708809.801566                       # Energy for read commands per rank (pJ)
system.mem_ctrls.rank0.writeEnergy       362773272.624035                       # Energy for write commands per rank (pJ)
system.mem_ctrls.rank0.refreshEnergy     252166436543.639343                       # Energy for refresh commands per rank (pJ)
system.mem_ctrls.rank0.actBackEnergy     103156594428.814590                       # Energy for active background per rank (pJ)
system.mem_ctrls.rank0.preBackEnergy     876962644090.165649                       # Energy for precharge background per rank (pJ)
system.mem_ctrls.rank0.actPowerDownEnergy            0                       # Energy for active power-down per rank (pJ)
system.mem_ctrls.rank0.prePowerDownEnergy            0                       # Energy for precharge power-down per rank (pJ)
system.mem_ctrls.rank0.selfRefreshEnergy            0                       # Energy for self refresh per rank (pJ)
system.mem_ctrls.rank0.totalEnergy       1253409674793.223389                       # Total energy per rank (pJ)
system.mem_ctrls.rank0.averagePower        431.472992                       # Core power per rank (mW)
system.mem_ctrls.rank0.totalIdleTime                0                       # Total Idle time Per DRAM Rank
system.mem_ctrls.rank0.memoryStateTime::IDLE 2641356034556                       # Time in different power states
system.mem_ctrls.rank0.memoryStateTime::REF 130587450000                       # Time in different power states
system.mem_ctrls.rank0.memoryStateTime::SREF            0                       # Time in different power states
system.mem_ctrls.rank0.memoryStateTime::PRE_PDN            0                       # Time in different power states
system.mem_ctrls.rank0.memoryStateTime::ACT 133011627802                       # Time in different power states
system.mem_ctrls.rank0.memoryStateTime::ACT_PDN            0                       # Time in different power states
system.cpu_clk_domain.clock                       333                       # Clock period in ticks
system.tol2bus.pwrStateResidencyTicks::UNDEFINED 2904955112358                       # Cumulative time (in ticks) in various power states
system.tol2bus.trans_dist::ReadResp         111664755                       # Transaction distribution
system.tol2bus.trans_dist::WritebackDirty     98912407                       # Transaction distribution
system.tol2bus.trans_dist::WritebackClean          322                       # Transaction distribution
system.tol2bus.trans_dist::CleanEvict        30854719                       # Transaction distribution
system.tol2bus.trans_dist::ReadExReq         12660752                       # Transaction distribution
system.tol2bus.trans_dist::ReadExResp        12660752                       # Transaction distribution
system.tol2bus.trans_dist::ReadCleanReq          1265                       # Transaction distribution
system.tol2bus.trans_dist::ReadSharedReq    111663490                       # Transaction distribution
system.tol2bus.pkt_count_system.cpu0.icache.mem_side::system.l2.cpu_side          916                       # Packet count per connected master and slave (bytes)
system.tol2bus.pkt_count_system.cpu0.dcache.mem_side::system.l2.cpu_side      1043740                       # Packet count per connected master and slave (bytes)
system.tol2bus.pkt_count_system.cpu1.icache.mem_side::system.l2.cpu_side         1936                       # Packet count per connected master and slave (bytes)
system.tol2bus.pkt_count_system.cpu1.dcache.mem_side::system.l2.cpu_side    371928970                       # Packet count per connected master and slave (bytes)
system.tol2bus.pkt_count::total             372975562                       # Packet count per connected master and slave (bytes)
system.tol2bus.pkt_size_system.cpu0.icache.mem_side::system.l2.cpu_side        29888                       # Cumulative packet size per connected master and slave (bytes)
system.tol2bus.pkt_size_system.cpu0.dcache.mem_side::system.l2.cpu_side     22299520                       # Cumulative packet size per connected master and slave (bytes)
system.tol2bus.pkt_size_system.cpu1.icache.mem_side::system.l2.cpu_side        71680                       # Cumulative packet size per connected master and slave (bytes)
system.tol2bus.pkt_size_system.cpu1.dcache.mem_side::system.l2.cpu_side  14245145728                       # Cumulative packet size per connected master and slave (bytes)
system.tol2bus.pkt_size::total            14267546816                       # Cumulative packet size per connected master and slave (bytes)
system.tol2bus.snoops                         5442900                       # Total snoops (count)
system.tol2bus.snoopTraffic                  19700288                       # Total snoop traffic (bytes)
system.tol2bus.snoop_fanout::samples        129768407                       # Request fanout histogram
system.tol2bus.snoop_fanout::mean            0.000008                       # Request fanout histogram
system.tol2bus.snoop_fanout::stdev           0.002834                       # Request fanout histogram
system.tol2bus.snoop_fanout::underflows             0      0.00%      0.00% # Request fanout histogram
system.tol2bus.snoop_fanout::0              129767365    100.00%    100.00% # Request fanout histogram
system.tol2bus.snoop_fanout::1                   1042      0.00%    100.00% # Request fanout histogram
system.tol2bus.snoop_fanout::2                      0      0.00%    100.00% # Request fanout histogram
system.tol2bus.snoop_fanout::3                      0      0.00%    100.00% # Request fanout histogram
system.tol2bus.snoop_fanout::4                      0      0.00%    100.00% # Request fanout histogram
system.tol2bus.snoop_fanout::5                      0      0.00%    100.00% # Request fanout histogram
system.tol2bus.snoop_fanout::6                      0      0.00%    100.00% # Request fanout histogram
system.tol2bus.snoop_fanout::7                      0      0.00%    100.00% # Request fanout histogram
system.tol2bus.snoop_fanout::8                      0      0.00%    100.00% # Request fanout histogram
system.tol2bus.snoop_fanout::overflows              0      0.00%    100.00% # Request fanout histogram
system.tol2bus.snoop_fanout::min_value              0                       # Request fanout histogram
system.tol2bus.snoop_fanout::max_value              1                       # Request fanout histogram
system.tol2bus.snoop_fanout::total          129768407                       # Request fanout histogram
system.tol2bus.reqLayer0.occupancy       148471339707                       # Layer occupancy (ticks)
system.tol2bus.reqLayer0.utilization              5.1                       # Layer utilization (%)
system.tol2bus.respLayer5.occupancy      123852349674                       # Layer occupancy (ticks)
system.tol2bus.respLayer5.utilization             4.3                       # Layer utilization (%)
system.tol2bus.respLayer4.occupancy            815184                       # Layer occupancy (ticks)
system.tol2bus.respLayer4.utilization             0.0                       # Layer utilization (%)
system.tol2bus.respLayer1.occupancy         348801464                       # Layer occupancy (ticks)
system.tol2bus.respLayer1.utilization             0.0                       # Layer utilization (%)
system.tol2bus.respLayer0.occupancy            448883                       # Layer occupancy (ticks)
system.tol2bus.respLayer0.utilization             0.0                       # Layer utilization (%)

---------- End Simulation Statistics   ----------
