
---------- Begin Simulation Statistics ----------
final_tick                               2283996409308                       # Number of ticks from beginning of simulation (restored from checkpoints and never reset)
host_inst_rate                                 599623                       # Simulator instruction rate (inst/s)
host_mem_usage                                9836544                       # Number of bytes of host memory used
host_op_rate                                   914547                       # Simulator op (including micro ops) rate (op/s)
host_seconds                                  1714.06                       # Real time elapsed on the host
host_tick_rate                             1332508398                       # Simulator tick rate (ticks/s)
sim_freq                                 1000000000000                       # Frequency of simulated ticks
sim_insts                                  1027788100                       # Number of instructions simulated
sim_ops                                    1567585989                       # Number of ops (including micro ops) simulated
sim_seconds                                  2.283996                       # Number of seconds simulated
sim_ticks                                2283996409308                       # Number of ticks simulated
system.cpu0.Branches                          2780018                       # Number of branches fetched
system.cpu0.committedInsts                   27788099                       # Number of instructions committed
system.cpu0.committedOps                     52797721                       # Number of ops (including micro ops) committed
system.cpu0.dtb.rdAccesses                   11113063                       # TLB accesses on read requests
system.cpu0.dtb.rdMisses                         5446                       # TLB misses on read requests
system.cpu0.dtb.wrAccesses                    5557395                       # TLB accesses on write requests
system.cpu0.dtb.wrMisses                            8                       # TLB misses on write requests
system.cpu0.idle_fraction                    0.970377                       # Percentage of idle cycles
system.cpu0.itb.rdAccesses                          0                       # TLB accesses on read requests
system.cpu0.itb.rdMisses                            0                       # TLB misses on read requests
system.cpu0.itb.wrAccesses                   38902351                       # TLB accesses on write requests
system.cpu0.itb.wrMisses                           46                       # TLB misses on write requests
system.cpu0.not_idle_fraction                0.029623                       # Percentage of non-idle cycles
system.cpu0.numCycles                       203179481                       # number of cpu cycles simulated
system.cpu0.numWorkItemsCompleted                   0                       # number of work items this cpu completed
system.cpu0.numWorkItemsStarted                     0                       # number of work items this cpu started
system.cpu0.num_busy_cycles              6018780.565189                       # Number of busy cycles
system.cpu0.num_cc_register_reads            13899961                       # number of times the CC registers were read
system.cpu0.num_cc_register_writes           16672913                       # number of times the CC registers were written
system.cpu0.num_conditional_control_insts      2779471                       # number of instructions that are conditional controls
system.cpu0.num_fp_alu_accesses                  1214                       # Number of float alu accesses
system.cpu0.num_fp_insts                         1214                       # number of float instructions
system.cpu0.num_fp_register_reads                1401                       # number of times the floating registers were read
system.cpu0.num_fp_register_writes                679                       # number of times the floating registers were written
system.cpu0.num_func_calls                        384                       # number of times a function call or return occured
system.cpu0.num_idle_cycles              197160700.434811                       # Number of idle cycles
system.cpu0.num_int_alu_accesses             52796880                       # Number of integer alu accesses
system.cpu0.num_int_insts                    52796880                       # number of integer instructions
system.cpu0.num_int_register_reads          105592520                       # number of times the integer registers were read
system.cpu0.num_int_register_writes          44459432                       # number of times the integer registers were written
system.cpu0.num_load_insts                   11113060                       # Number of load instructions
system.cpu0.num_mem_refs                     16670454                       # number of memory refs
system.cpu0.num_store_insts                   5557394                       # Number of store instructions
system.cpu0.num_vec_alu_accesses                    0                       # Number of vector alu accesses
system.cpu0.num_vec_insts                           0                       # number of vector instructions
system.cpu0.num_vec_register_reads                  0                       # number of times the vector registers were read
system.cpu0.num_vec_register_writes                 0                       # number of times the vector registers were written
system.cpu0.op_class::No_OpClass                  336      0.00%      0.00% # Class of executed instruction
system.cpu0.op_class::IntAlu                 36126368     68.42%     68.42% # Class of executed instruction
system.cpu0.op_class::IntMult                       5      0.00%     68.42% # Class of executed instruction
system.cpu0.op_class::IntDiv                       28      0.00%     68.42% # Class of executed instruction
system.cpu0.op_class::FloatAdd                    144      0.00%     68.43% # Class of executed instruction
system.cpu0.op_class::FloatCmp                      0      0.00%     68.43% # Class of executed instruction
system.cpu0.op_class::FloatCvt                      0      0.00%     68.43% # Class of executed instruction
system.cpu0.op_class::FloatMult                     0      0.00%     68.43% # Class of executed instruction
system.cpu0.op_class::FloatMultAcc                  0      0.00%     68.43% # Class of executed instruction
system.cpu0.op_class::FloatDiv                      0      0.00%     68.43% # Class of executed instruction
system.cpu0.op_class::FloatMisc                     0      0.00%     68.43% # Class of executed instruction
system.cpu0.op_class::FloatSqrt                     0      0.00%     68.43% # Class of executed instruction
system.cpu0.op_class::SimdAdd                       0      0.00%     68.43% # Class of executed instruction
system.cpu0.op_class::SimdAddAcc                    0      0.00%     68.43% # Class of executed instruction
system.cpu0.op_class::SimdAlu                     104      0.00%     68.43% # Class of executed instruction
system.cpu0.op_class::SimdCmp                       0      0.00%     68.43% # Class of executed instruction
system.cpu0.op_class::SimdCvt                      54      0.00%     68.43% # Class of executed instruction
system.cpu0.op_class::SimdMisc                    228      0.00%     68.43% # Class of executed instruction
system.cpu0.op_class::SimdMult                      0      0.00%     68.43% # Class of executed instruction
system.cpu0.op_class::SimdMultAcc                   0      0.00%     68.43% # Class of executed instruction
system.cpu0.op_class::SimdShift                     0      0.00%     68.43% # Class of executed instruction
system.cpu0.op_class::SimdShiftAcc                  0      0.00%     68.43% # Class of executed instruction
system.cpu0.op_class::SimdDiv                       0      0.00%     68.43% # Class of executed instruction
system.cpu0.op_class::SimdSqrt                      0      0.00%     68.43% # Class of executed instruction
system.cpu0.op_class::SimdFloatAdd                  0      0.00%     68.43% # Class of executed instruction
system.cpu0.op_class::SimdFloatAlu                  0      0.00%     68.43% # Class of executed instruction
system.cpu0.op_class::SimdFloatCmp                  0      0.00%     68.43% # Class of executed instruction
system.cpu0.op_class::SimdFloatCvt                  0      0.00%     68.43% # Class of executed instruction
system.cpu0.op_class::SimdFloatDiv                  0      0.00%     68.43% # Class of executed instruction
system.cpu0.op_class::SimdFloatMisc                 0      0.00%     68.43% # Class of executed instruction
system.cpu0.op_class::SimdFloatMult                 0      0.00%     68.43% # Class of executed instruction
system.cpu0.op_class::SimdFloatMultAcc              0      0.00%     68.43% # Class of executed instruction
system.cpu0.op_class::SimdFloatSqrt                 0      0.00%     68.43% # Class of executed instruction
system.cpu0.op_class::SimdReduceAdd                 0      0.00%     68.43% # Class of executed instruction
system.cpu0.op_class::SimdReduceAlu                 0      0.00%     68.43% # Class of executed instruction
system.cpu0.op_class::SimdReduceCmp                 0      0.00%     68.43% # Class of executed instruction
system.cpu0.op_class::SimdFloatReduceAdd            0      0.00%     68.43% # Class of executed instruction
system.cpu0.op_class::SimdFloatReduceCmp            0      0.00%     68.43% # Class of executed instruction
system.cpu0.op_class::SimdAes                       0      0.00%     68.43% # Class of executed instruction
system.cpu0.op_class::SimdAesMix                    0      0.00%     68.43% # Class of executed instruction
system.cpu0.op_class::SimdSha1Hash                  0      0.00%     68.43% # Class of executed instruction
system.cpu0.op_class::SimdSha1Hash2                 0      0.00%     68.43% # Class of executed instruction
system.cpu0.op_class::SimdSha256Hash                0      0.00%     68.43% # Class of executed instruction
system.cpu0.op_class::SimdSha256Hash2               0      0.00%     68.43% # Class of executed instruction
system.cpu0.op_class::SimdShaSigma2                 0      0.00%     68.43% # Class of executed instruction
system.cpu0.op_class::SimdShaSigma3                 0      0.00%     68.43% # Class of executed instruction
system.cpu0.op_class::SimdPredAlu                   0      0.00%     68.43% # Class of executed instruction
system.cpu0.op_class::MemRead                11113000     21.05%     89.47% # Class of executed instruction
system.cpu0.op_class::MemWrite                5556913     10.52%    100.00% # Class of executed instruction
system.cpu0.op_class::FloatMemRead                 60      0.00%    100.00% # Class of executed instruction
system.cpu0.op_class::FloatMemWrite               481      0.00%    100.00% # Class of executed instruction
system.cpu0.op_class::IprAccess                     0      0.00%    100.00% # Class of executed instruction
system.cpu0.op_class::InstPrefetch                  0      0.00%    100.00% # Class of executed instruction
system.cpu0.op_class::total                  52797721                       # Class of executed instruction
system.cpu0.workload.numSyscalls                   12                       # Number of system calls
system.cpu1.Branches                         20606429                       # Number of branches fetched
system.cpu1.committedInsts                 1000000001                       # Number of instructions committed
system.cpu1.committedOps                   1514788268                       # Number of ops (including micro ops) committed
system.cpu1.dtb.rdAccesses                  256033106                       # TLB accesses on read requests
system.cpu1.dtb.rdMisses                        11248                       # TLB misses on read requests
system.cpu1.dtb.wrAccesses                   74690387                       # TLB accesses on write requests
system.cpu1.dtb.wrMisses                        17436                       # TLB misses on write requests
system.cpu1.idle_fraction                           0                       # Percentage of idle cycles
system.cpu1.itb.rdAccesses                          0                       # TLB accesses on read requests
system.cpu1.itb.rdMisses                            0                       # TLB misses on read requests
system.cpu1.itb.wrAccesses                 1564967772                       # TLB accesses on write requests
system.cpu1.itb.wrMisses                         3048                       # TLB misses on write requests
system.cpu1.not_idle_fraction                       1                       # Percentage of non-idle cycles
system.cpu1.numCycles                      6858848076                       # number of cpu cycles simulated
system.cpu1.numWorkItemsCompleted                   0                       # number of work items this cpu completed
system.cpu1.numWorkItemsStarted                     0                       # number of work items this cpu started
system.cpu1.num_busy_cycles                6858848076                       # Number of busy cycles
system.cpu1.num_cc_register_reads           103630304                       # number of times the CC registers were read
system.cpu1.num_cc_register_writes           64545688                       # number of times the CC registers were written
system.cpu1.num_conditional_control_insts     15864010                       # number of instructions that are conditional controls
system.cpu1.num_fp_alu_accesses            1314766263                       # Number of float alu accesses
system.cpu1.num_fp_insts                   1314766263                       # number of float instructions
system.cpu1.num_fp_register_reads          2250119346                       # number of times the floating registers were read
system.cpu1.num_fp_register_writes         1247172637                       # number of times the floating registers were written
system.cpu1.num_func_calls                    2912311                       # number of times a function call or return occured
system.cpu1.num_idle_cycles                         0                       # Number of idle cycles
system.cpu1.num_int_alu_accesses            490312130                       # Number of integer alu accesses
system.cpu1.num_int_insts                   490312130                       # number of integer instructions
system.cpu1.num_int_register_reads         1244692614                       # number of times the integer registers were read
system.cpu1.num_int_register_writes         169728061                       # number of times the integer registers were written
system.cpu1.num_load_insts                  256005818                       # Number of load instructions
system.cpu1.num_mem_refs                    330679813                       # number of memory refs
system.cpu1.num_store_insts                  74673995                       # Number of store instructions
system.cpu1.num_vec_alu_accesses                    0                       # Number of vector alu accesses
system.cpu1.num_vec_insts                           0                       # number of vector instructions
system.cpu1.num_vec_register_reads                  0                       # number of times the vector registers were read
system.cpu1.num_vec_register_writes                 0                       # number of times the vector registers were written
system.cpu1.op_class::No_OpClass              1839477      0.12%      0.12% # Class of executed instruction
system.cpu1.op_class::IntAlu                477343677     31.51%     31.63% # Class of executed instruction
system.cpu1.op_class::IntMult                 1191006      0.08%     31.71% # Class of executed instruction
system.cpu1.op_class::IntDiv                    11322      0.00%     31.71% # Class of executed instruction
system.cpu1.op_class::FloatAdd              165913277     10.95%     42.67% # Class of executed instruction
system.cpu1.op_class::FloatCmp                      0      0.00%     42.67% # Class of executed instruction
system.cpu1.op_class::FloatCvt                      0      0.00%     42.67% # Class of executed instruction
system.cpu1.op_class::FloatMult                     0      0.00%     42.67% # Class of executed instruction
system.cpu1.op_class::FloatMultAcc                  0      0.00%     42.67% # Class of executed instruction
system.cpu1.op_class::FloatDiv                      0      0.00%     42.67% # Class of executed instruction
system.cpu1.op_class::FloatMisc                     0      0.00%     42.67% # Class of executed instruction
system.cpu1.op_class::FloatSqrt                     0      0.00%     42.67% # Class of executed instruction
system.cpu1.op_class::SimdAdd                  168556      0.01%     42.68% # Class of executed instruction
system.cpu1.op_class::SimdAddAcc                    0      0.00%     42.68% # Class of executed instruction
system.cpu1.op_class::SimdAlu                55171773      3.64%     46.32% # Class of executed instruction
system.cpu1.op_class::SimdCmp                    3014      0.00%     46.32% # Class of executed instruction
system.cpu1.op_class::SimdCvt                  329628      0.02%     46.34% # Class of executed instruction
system.cpu1.op_class::SimdMisc                3186284      0.21%     46.55% # Class of executed instruction
system.cpu1.op_class::SimdMult                      0      0.00%     46.55% # Class of executed instruction
system.cpu1.op_class::SimdMultAcc                   0      0.00%     46.55% # Class of executed instruction
system.cpu1.op_class::SimdShift                  5055      0.00%     46.55% # Class of executed instruction
system.cpu1.op_class::SimdShiftAcc                  0      0.00%     46.55% # Class of executed instruction
system.cpu1.op_class::SimdDiv                       0      0.00%     46.55% # Class of executed instruction
system.cpu1.op_class::SimdSqrt                      0      0.00%     46.55% # Class of executed instruction
system.cpu1.op_class::SimdFloatAdd          220915411     14.58%     61.14% # Class of executed instruction
system.cpu1.op_class::SimdFloatAlu                  0      0.00%     61.14% # Class of executed instruction
system.cpu1.op_class::SimdFloatCmp                  2      0.00%     61.14% # Class of executed instruction
system.cpu1.op_class::SimdFloatCvt            9201834      0.61%     61.74% # Class of executed instruction
system.cpu1.op_class::SimdFloatDiv            5116675      0.34%     62.08% # Class of executed instruction
system.cpu1.op_class::SimdFloatMisc                 0      0.00%     62.08% # Class of executed instruction
system.cpu1.op_class::SimdFloatMult         242806672     16.03%     78.11% # Class of executed instruction
system.cpu1.op_class::SimdFloatMultAcc              0      0.00%     78.11% # Class of executed instruction
system.cpu1.op_class::SimdFloatSqrt            904792      0.06%     78.17% # Class of executed instruction
system.cpu1.op_class::SimdReduceAdd                 0      0.00%     78.17% # Class of executed instruction
system.cpu1.op_class::SimdReduceAlu                 0      0.00%     78.17% # Class of executed instruction
system.cpu1.op_class::SimdReduceCmp                 0      0.00%     78.17% # Class of executed instruction
system.cpu1.op_class::SimdFloatReduceAdd            0      0.00%     78.17% # Class of executed instruction
system.cpu1.op_class::SimdFloatReduceCmp            0      0.00%     78.17% # Class of executed instruction
system.cpu1.op_class::SimdAes                       0      0.00%     78.17% # Class of executed instruction
system.cpu1.op_class::SimdAesMix                    0      0.00%     78.17% # Class of executed instruction
system.cpu1.op_class::SimdSha1Hash                  0      0.00%     78.17% # Class of executed instruction
system.cpu1.op_class::SimdSha1Hash2                 0      0.00%     78.17% # Class of executed instruction
system.cpu1.op_class::SimdSha256Hash                0      0.00%     78.17% # Class of executed instruction
system.cpu1.op_class::SimdSha256Hash2               0      0.00%     78.17% # Class of executed instruction
system.cpu1.op_class::SimdShaSigma2                 0      0.00%     78.17% # Class of executed instruction
system.cpu1.op_class::SimdShaSigma3                 0      0.00%     78.17% # Class of executed instruction
system.cpu1.op_class::SimdPredAlu                   0      0.00%     78.17% # Class of executed instruction
system.cpu1.op_class::MemRead                31231766      2.06%     80.23% # Class of executed instruction
system.cpu1.op_class::MemWrite               10231416      0.68%     80.91% # Class of executed instruction
system.cpu1.op_class::FloatMemRead          224774052     14.84%     95.75% # Class of executed instruction
system.cpu1.op_class::FloatMemWrite          64442579      4.25%    100.00% # Class of executed instruction
system.cpu1.op_class::IprAccess                     0      0.00%    100.00% # Class of executed instruction
system.cpu1.op_class::InstPrefetch                  0      0.00%    100.00% # Class of executed instruction
system.cpu1.op_class::total                1514788268                       # Class of executed instruction
system.cpu1.workload.numSyscalls                  313                       # Number of system calls
system.membus.snoop_filter.hit_multi_requests            0                       # Number of requests hitting in the snoop filter with multiple (>1) holders of the requested data.
system.membus.snoop_filter.hit_multi_snoops            0                       # Number of snoops hitting in the snoop filter with multiple (>1) holders of the requested data.
system.membus.snoop_filter.hit_single_requests      1303896                       # Number of requests hitting in the snoop filter with a single holder of the requested data.
system.membus.snoop_filter.hit_single_snoops            0                       # Number of snoops hitting in the snoop filter with a single holder of the requested data.
system.membus.snoop_filter.tot_requests       2870887                       # Total number of requests made to the snoop filter.
system.membus.snoop_filter.tot_snoops               0                       # Total number of snoops made to the snoop filter.
system.tol2bus.snoop_filter.hit_multi_requests            0                       # Number of requests hitting in the snoop filter with multiple (>1) holders of the requested data.
system.tol2bus.snoop_filter.hit_multi_snoops            0                       # Number of snoops hitting in the snoop filter with multiple (>1) holders of the requested data.
system.tol2bus.snoop_filter.hit_single_requests     84293944                       # Number of requests hitting in the snoop filter with a single holder of the requested data.
system.tol2bus.snoop_filter.hit_single_snoops         1652                       # Number of snoops hitting in the snoop filter with a single holder of the requested data.
system.tol2bus.snoop_filter.tot_requests    168588847                       # Total number of requests made to the snoop filter.
system.tol2bus.snoop_filter.tot_snoops           1652                       # Total number of snoops made to the snoop filter.
system.membus.pwrStateResidencyTicks::UNDEFINED 2283996409308                       # Cumulative time (in ticks) in various power states
system.membus.trans_dist::ReadResp             474573                       # Transaction distribution
system.membus.trans_dist::WritebackDirty       865016                       # Transaction distribution
system.membus.trans_dist::CleanEvict           438880                       # Transaction distribution
system.membus.trans_dist::ReadExReq           1092418                       # Transaction distribution
system.membus.trans_dist::ReadExResp          1092418                       # Transaction distribution
system.membus.trans_dist::ReadSharedReq        474573                       # Transaction distribution
system.membus.pkt_count_system.l2.mem_side::system.mem_ctrls.port      4437878                       # Packet count per connected master and slave (bytes)
system.membus.pkt_count_system.l2.mem_side::total      4437878                       # Packet count per connected master and slave (bytes)
system.membus.pkt_count::total                4437878                       # Packet count per connected master and slave (bytes)
system.membus.pkt_size_system.l2.mem_side::system.mem_ctrls.port    155648448                       # Cumulative packet size per connected master and slave (bytes)
system.membus.pkt_size_system.l2.mem_side::total    155648448                       # Cumulative packet size per connected master and slave (bytes)
system.membus.pkt_size::total               155648448                       # Cumulative packet size per connected master and slave (bytes)
system.membus.snoops                                0                       # Total snoops (count)
system.membus.snoopTraffic                          0                       # Total snoop traffic (bytes)
system.membus.snoop_fanout::samples           1566991                       # Request fanout histogram
system.membus.snoop_fanout::mean                    0                       # Request fanout histogram
system.membus.snoop_fanout::stdev                   0                       # Request fanout histogram
system.membus.snoop_fanout::underflows              0      0.00%      0.00% # Request fanout histogram
system.membus.snoop_fanout::0                 1566991    100.00%    100.00% # Request fanout histogram
system.membus.snoop_fanout::1                       0      0.00%    100.00% # Request fanout histogram
system.membus.snoop_fanout::overflows               0      0.00%    100.00% # Request fanout histogram
system.membus.snoop_fanout::min_value               0                       # Request fanout histogram
system.membus.snoop_fanout::max_value               0                       # Request fanout histogram
system.membus.snoop_fanout::total             1566991                       # Request fanout histogram
system.membus.reqLayer4.occupancy          8030552243                       # Layer occupancy (ticks)
system.membus.reqLayer4.utilization               0.4                       # Layer utilization (%)
system.membus.respLayer1.occupancy         8390612437                       # Layer occupancy (ticks)
system.membus.respLayer1.utilization              0.4                       # Layer utilization (%)
system.voltage_domain.voltage                       1                       # Voltage in Volts
system.clk_domain.clock                          1000                       # Clock period in ticks
system.cpu0.numPwrStateTransitions                  1                       # Number of power state transitions
system.cpu0.pwrStateResidencyTicks::ON   2283996409308                       # Cumulative time (in ticks) in various power states
system.cpu0.icache.pwrStateResidencyTicks::UNDEFINED 2283996409308                       # Cumulative time (in ticks) in various power states
system.cpu0.icache.demand_hits::.cpu0.inst     38901902                       # number of demand (read+write) hits
system.cpu0.icache.demand_hits::total        38901902                       # number of demand (read+write) hits
system.cpu0.icache.overall_hits::.cpu0.inst     38901902                       # number of overall hits
system.cpu0.icache.overall_hits::total       38901902                       # number of overall hits
system.cpu0.icache.demand_misses::.cpu0.inst          449                       # number of demand (read+write) misses
system.cpu0.icache.demand_misses::total           449                       # number of demand (read+write) misses
system.cpu0.icache.overall_misses::.cpu0.inst          449                       # number of overall misses
system.cpu0.icache.overall_misses::total          449                       # number of overall misses
system.cpu0.icache.demand_miss_latency::.cpu0.inst     38063898                       # number of demand (read+write) miss cycles
system.cpu0.icache.demand_miss_latency::total     38063898                       # number of demand (read+write) miss cycles
system.cpu0.icache.overall_miss_latency::.cpu0.inst     38063898                       # number of overall miss cycles
system.cpu0.icache.overall_miss_latency::total     38063898                       # number of overall miss cycles
system.cpu0.icache.demand_accesses::.cpu0.inst     38902351                       # number of demand (read+write) accesses
system.cpu0.icache.demand_accesses::total     38902351                       # number of demand (read+write) accesses
system.cpu0.icache.overall_accesses::.cpu0.inst     38902351                       # number of overall (read+write) accesses
system.cpu0.icache.overall_accesses::total     38902351                       # number of overall (read+write) accesses
system.cpu0.icache.demand_miss_rate::.cpu0.inst     0.000012                       # miss rate for demand accesses
system.cpu0.icache.demand_miss_rate::total     0.000012                       # miss rate for demand accesses
system.cpu0.icache.overall_miss_rate::.cpu0.inst     0.000012                       # miss rate for overall accesses
system.cpu0.icache.overall_miss_rate::total     0.000012                       # miss rate for overall accesses
system.cpu0.icache.demand_avg_miss_latency::.cpu0.inst 84774.828508                       # average overall miss latency
system.cpu0.icache.demand_avg_miss_latency::total 84774.828508                       # average overall miss latency
system.cpu0.icache.overall_avg_miss_latency::.cpu0.inst 84774.828508                       # average overall miss latency
system.cpu0.icache.overall_avg_miss_latency::total 84774.828508                       # average overall miss latency
system.cpu0.icache.blocked_cycles::no_mshrs            0                       # number of cycles access was blocked
system.cpu0.icache.blocked_cycles::no_targets            0                       # number of cycles access was blocked
system.cpu0.icache.blocked::no_mshrs                0                       # number of cycles access was blocked
system.cpu0.icache.blocked::no_targets              0                       # number of cycles access was blocked
system.cpu0.icache.avg_blocked_cycles::no_mshrs          nan                       # average number of cycles each access was blocked
system.cpu0.icache.avg_blocked_cycles::no_targets          nan                       # average number of cycles each access was blocked
system.cpu0.icache.writebacks::.writebacks           18                       # number of writebacks
system.cpu0.icache.writebacks::total               18                       # number of writebacks
system.cpu0.icache.demand_mshr_misses::.cpu0.inst          449                       # number of demand (read+write) MSHR misses
system.cpu0.icache.demand_mshr_misses::total          449                       # number of demand (read+write) MSHR misses
system.cpu0.icache.overall_mshr_misses::.cpu0.inst          449                       # number of overall MSHR misses
system.cpu0.icache.overall_mshr_misses::total          449                       # number of overall MSHR misses
system.cpu0.icache.demand_mshr_miss_latency::.cpu0.inst     37764864                       # number of demand (read+write) MSHR miss cycles
system.cpu0.icache.demand_mshr_miss_latency::total     37764864                       # number of demand (read+write) MSHR miss cycles
system.cpu0.icache.overall_mshr_miss_latency::.cpu0.inst     37764864                       # number of overall MSHR miss cycles
system.cpu0.icache.overall_mshr_miss_latency::total     37764864                       # number of overall MSHR miss cycles
system.cpu0.icache.demand_mshr_miss_rate::.cpu0.inst     0.000012                       # mshr miss rate for demand accesses
system.cpu0.icache.demand_mshr_miss_rate::total     0.000012                       # mshr miss rate for demand accesses
system.cpu0.icache.overall_mshr_miss_rate::.cpu0.inst     0.000012                       # mshr miss rate for overall accesses
system.cpu0.icache.overall_mshr_miss_rate::total     0.000012                       # mshr miss rate for overall accesses
system.cpu0.icache.demand_avg_mshr_miss_latency::.cpu0.inst 84108.828508                       # average overall mshr miss latency
system.cpu0.icache.demand_avg_mshr_miss_latency::total 84108.828508                       # average overall mshr miss latency
system.cpu0.icache.overall_avg_mshr_miss_latency::.cpu0.inst 84108.828508                       # average overall mshr miss latency
system.cpu0.icache.overall_avg_mshr_miss_latency::total 84108.828508                       # average overall mshr miss latency
system.cpu0.icache.replacements                    18                       # number of replacements
system.cpu0.icache.ReadReq_hits::.cpu0.inst     38901902                       # number of ReadReq hits
system.cpu0.icache.ReadReq_hits::total       38901902                       # number of ReadReq hits
system.cpu0.icache.ReadReq_misses::.cpu0.inst          449                       # number of ReadReq misses
system.cpu0.icache.ReadReq_misses::total          449                       # number of ReadReq misses
system.cpu0.icache.ReadReq_miss_latency::.cpu0.inst     38063898                       # number of ReadReq miss cycles
system.cpu0.icache.ReadReq_miss_latency::total     38063898                       # number of ReadReq miss cycles
system.cpu0.icache.ReadReq_accesses::.cpu0.inst     38902351                       # number of ReadReq accesses(hits+misses)
system.cpu0.icache.ReadReq_accesses::total     38902351                       # number of ReadReq accesses(hits+misses)
system.cpu0.icache.ReadReq_miss_rate::.cpu0.inst     0.000012                       # miss rate for ReadReq accesses
system.cpu0.icache.ReadReq_miss_rate::total     0.000012                       # miss rate for ReadReq accesses
system.cpu0.icache.ReadReq_avg_miss_latency::.cpu0.inst 84774.828508                       # average ReadReq miss latency
system.cpu0.icache.ReadReq_avg_miss_latency::total 84774.828508                       # average ReadReq miss latency
system.cpu0.icache.ReadReq_mshr_misses::.cpu0.inst          449                       # number of ReadReq MSHR misses
system.cpu0.icache.ReadReq_mshr_misses::total          449                       # number of ReadReq MSHR misses
system.cpu0.icache.ReadReq_mshr_miss_latency::.cpu0.inst     37764864                       # number of ReadReq MSHR miss cycles
system.cpu0.icache.ReadReq_mshr_miss_latency::total     37764864                       # number of ReadReq MSHR miss cycles
system.cpu0.icache.ReadReq_mshr_miss_rate::.cpu0.inst     0.000012                       # mshr miss rate for ReadReq accesses
system.cpu0.icache.ReadReq_mshr_miss_rate::total     0.000012                       # mshr miss rate for ReadReq accesses
system.cpu0.icache.ReadReq_avg_mshr_miss_latency::.cpu0.inst 84108.828508                       # average ReadReq mshr miss latency
system.cpu0.icache.ReadReq_avg_mshr_miss_latency::total 84108.828508                       # average ReadReq mshr miss latency
system.cpu0.icache.tags.pwrStateResidencyTicks::UNDEFINED 2283996409308                       # Cumulative time (in ticks) in various power states
system.cpu0.icache.tags.tagsinuse          428.536996                       # Cycle average of tags in use
system.cpu0.icache.tags.total_refs           38902351                       # Total number of references to valid blocks.
system.cpu0.icache.tags.sampled_refs              449                       # Sample count of references to valid blocks.
system.cpu0.icache.tags.avg_refs         86642.207127                       # Average number of references to valid blocks.
system.cpu0.icache.tags.warmup_cycle            83250                       # Cycle when the warmup percentage was hit.
system.cpu0.icache.tags.occ_blocks::.cpu0.inst   428.536996                       # Average occupied blocks per requestor
system.cpu0.icache.tags.occ_percent::.cpu0.inst     0.836986                       # Average percentage of cache occupancy
system.cpu0.icache.tags.occ_percent::total     0.836986                       # Average percentage of cache occupancy
system.cpu0.icache.tags.occ_task_id_blocks::1024          431                       # Occupied blocks per task id
system.cpu0.icache.tags.age_task_id_blocks_1024::4          431                       # Occupied blocks per task id
system.cpu0.icache.tags.occ_task_id_percent::1024     0.841797                       # Percentage of cache occupancy per task id
system.cpu0.icache.tags.tag_accesses        311219257                       # Number of tag accesses
system.cpu0.icache.tags.data_accesses       311219257                       # Number of data accesses
system.cpu0.icache.tags.repl_invalid                0                       # Number of initial replacements
system.cpu0.icache.tags.repl_valid_tag              0                       # Number of local replacements
system.cpu0.icache.tags.repl_valid_data             0                       # Number of global replacements
system.cpu0.dtb.walker.pwrStateResidencyTicks::UNDEFINED 2283996409308                       # Cumulative time (in ticks) in various power states
system.cpu0.interrupts.clk_domain.clock          5328                       # Clock period in ticks
system.cpu0.itb_walker_cache.pwrStateResidencyTicks::UNDEFINED 2283996409308                       # Cumulative time (in ticks) in various power states
system.cpu0.itb_walker_cache.blocked_cycles::no_mshrs            0                       # number of cycles access was blocked
system.cpu0.itb_walker_cache.blocked_cycles::no_targets            0                       # number of cycles access was blocked
system.cpu0.itb_walker_cache.blocked::no_mshrs            0                       # number of cycles access was blocked
system.cpu0.itb_walker_cache.blocked::no_targets            0                       # number of cycles access was blocked
system.cpu0.itb_walker_cache.avg_blocked_cycles::no_mshrs          nan                       # average number of cycles each access was blocked
system.cpu0.itb_walker_cache.avg_blocked_cycles::no_targets          nan                       # average number of cycles each access was blocked
system.cpu0.itb_walker_cache.replacements            0                       # number of replacements
system.cpu0.itb_walker_cache.tags.pwrStateResidencyTicks::UNDEFINED 2283996409308                       # Cumulative time (in ticks) in various power states
system.cpu0.itb_walker_cache.tags.tagsinuse            0                       # Cycle average of tags in use
system.cpu0.itb_walker_cache.tags.total_refs            0                       # Total number of references to valid blocks.
system.cpu0.itb_walker_cache.tags.sampled_refs            0                       # Sample count of references to valid blocks.
system.cpu0.itb_walker_cache.tags.avg_refs          nan                       # Average number of references to valid blocks.
system.cpu0.itb_walker_cache.tags.warmup_cycle            0                       # Cycle when the warmup percentage was hit.
system.cpu0.itb_walker_cache.tags.tag_accesses            0                       # Number of tag accesses
system.cpu0.itb_walker_cache.tags.data_accesses            0                       # Number of data accesses
system.cpu0.itb_walker_cache.tags.repl_invalid            0                       # Number of initial replacements
system.cpu0.itb_walker_cache.tags.repl_valid_tag            0                       # Number of local replacements
system.cpu0.itb_walker_cache.tags.repl_valid_data            0                       # Number of global replacements
system.cpu0.itb.walker.pwrStateResidencyTicks::UNDEFINED 2283996409308                       # Cumulative time (in ticks) in various power states
system.cpu0.dtb_walker_cache.pwrStateResidencyTicks::UNDEFINED 2283996409308                       # Cumulative time (in ticks) in various power states
system.cpu0.dtb_walker_cache.blocked_cycles::no_mshrs            0                       # number of cycles access was blocked
system.cpu0.dtb_walker_cache.blocked_cycles::no_targets            0                       # number of cycles access was blocked
system.cpu0.dtb_walker_cache.blocked::no_mshrs            0                       # number of cycles access was blocked
system.cpu0.dtb_walker_cache.blocked::no_targets            0                       # number of cycles access was blocked
system.cpu0.dtb_walker_cache.avg_blocked_cycles::no_mshrs          nan                       # average number of cycles each access was blocked
system.cpu0.dtb_walker_cache.avg_blocked_cycles::no_targets          nan                       # average number of cycles each access was blocked
system.cpu0.dtb_walker_cache.replacements            0                       # number of replacements
system.cpu0.dtb_walker_cache.tags.pwrStateResidencyTicks::UNDEFINED 2283996409308                       # Cumulative time (in ticks) in various power states
system.cpu0.dtb_walker_cache.tags.tagsinuse            0                       # Cycle average of tags in use
system.cpu0.dtb_walker_cache.tags.total_refs            0                       # Total number of references to valid blocks.
system.cpu0.dtb_walker_cache.tags.sampled_refs            0                       # Sample count of references to valid blocks.
system.cpu0.dtb_walker_cache.tags.avg_refs          nan                       # Average number of references to valid blocks.
system.cpu0.dtb_walker_cache.tags.warmup_cycle            0                       # Cycle when the warmup percentage was hit.
system.cpu0.dtb_walker_cache.tags.tag_accesses            0                       # Number of tag accesses
system.cpu0.dtb_walker_cache.tags.data_accesses            0                       # Number of data accesses
system.cpu0.dtb_walker_cache.tags.repl_invalid            0                       # Number of initial replacements
system.cpu0.dtb_walker_cache.tags.repl_valid_tag            0                       # Number of local replacements
system.cpu0.dtb_walker_cache.tags.repl_valid_data            0                       # Number of global replacements
system.cpu0.dcache.pwrStateResidencyTicks::UNDEFINED 2283996409308                       # Cumulative time (in ticks) in various power states
system.cpu0.dcache.demand_hits::.cpu0.data     16322542                       # number of demand (read+write) hits
system.cpu0.dcache.demand_hits::total        16322542                       # number of demand (read+write) hits
system.cpu0.dcache.overall_hits::.cpu0.data     16322542                       # number of overall hits
system.cpu0.dcache.overall_hits::total       16322542                       # number of overall hits
system.cpu0.dcache.demand_misses::.cpu0.data       347916                       # number of demand (read+write) misses
system.cpu0.dcache.demand_misses::total        347916                       # number of demand (read+write) misses
system.cpu0.dcache.overall_misses::.cpu0.data       347916                       # number of overall misses
system.cpu0.dcache.overall_misses::total       347916                       # number of overall misses
system.cpu0.dcache.demand_miss_latency::.cpu0.data  30841246881                       # number of demand (read+write) miss cycles
system.cpu0.dcache.demand_miss_latency::total  30841246881                       # number of demand (read+write) miss cycles
system.cpu0.dcache.overall_miss_latency::.cpu0.data  30841246881                       # number of overall miss cycles
system.cpu0.dcache.overall_miss_latency::total  30841246881                       # number of overall miss cycles
system.cpu0.dcache.demand_accesses::.cpu0.data     16670458                       # number of demand (read+write) accesses
system.cpu0.dcache.demand_accesses::total     16670458                       # number of demand (read+write) accesses
system.cpu0.dcache.overall_accesses::.cpu0.data     16670458                       # number of overall (read+write) accesses
system.cpu0.dcache.overall_accesses::total     16670458                       # number of overall (read+write) accesses
system.cpu0.dcache.demand_miss_rate::.cpu0.data     0.020870                       # miss rate for demand accesses
system.cpu0.dcache.demand_miss_rate::total     0.020870                       # miss rate for demand accesses
system.cpu0.dcache.overall_miss_rate::.cpu0.data     0.020870                       # miss rate for overall accesses
system.cpu0.dcache.overall_miss_rate::total     0.020870                       # miss rate for overall accesses
system.cpu0.dcache.demand_avg_miss_latency::.cpu0.data 88645.669877                       # average overall miss latency
system.cpu0.dcache.demand_avg_miss_latency::total 88645.669877                       # average overall miss latency
system.cpu0.dcache.overall_avg_miss_latency::.cpu0.data 88645.669877                       # average overall miss latency
system.cpu0.dcache.overall_avg_miss_latency::total 88645.669877                       # average overall miss latency
system.cpu0.dcache.blocked_cycles::no_mshrs            0                       # number of cycles access was blocked
system.cpu0.dcache.blocked_cycles::no_targets            0                       # number of cycles access was blocked
system.cpu0.dcache.blocked::no_mshrs                0                       # number of cycles access was blocked
system.cpu0.dcache.blocked::no_targets              0                       # number of cycles access was blocked
system.cpu0.dcache.avg_blocked_cycles::no_mshrs          nan                       # average number of cycles each access was blocked
system.cpu0.dcache.avg_blocked_cycles::no_targets          nan                       # average number of cycles each access was blocked
system.cpu0.dcache.writebacks::.writebacks          535                       # number of writebacks
system.cpu0.dcache.writebacks::total              535                       # number of writebacks
system.cpu0.dcache.demand_mshr_misses::.cpu0.data       347916                       # number of demand (read+write) MSHR misses
system.cpu0.dcache.demand_mshr_misses::total       347916                       # number of demand (read+write) MSHR misses
system.cpu0.dcache.overall_mshr_misses::.cpu0.data       347916                       # number of overall MSHR misses
system.cpu0.dcache.overall_mshr_misses::total       347916                       # number of overall MSHR misses
system.cpu0.dcache.demand_mshr_miss_latency::.cpu0.data  30609534825                       # number of demand (read+write) MSHR miss cycles
system.cpu0.dcache.demand_mshr_miss_latency::total  30609534825                       # number of demand (read+write) MSHR miss cycles
system.cpu0.dcache.overall_mshr_miss_latency::.cpu0.data  30609534825                       # number of overall MSHR miss cycles
system.cpu0.dcache.overall_mshr_miss_latency::total  30609534825                       # number of overall MSHR miss cycles
system.cpu0.dcache.demand_mshr_miss_rate::.cpu0.data     0.020870                       # mshr miss rate for demand accesses
system.cpu0.dcache.demand_mshr_miss_rate::total     0.020870                       # mshr miss rate for demand accesses
system.cpu0.dcache.overall_mshr_miss_rate::.cpu0.data     0.020870                       # mshr miss rate for overall accesses
system.cpu0.dcache.overall_mshr_miss_rate::total     0.020870                       # mshr miss rate for overall accesses
system.cpu0.dcache.demand_avg_mshr_miss_latency::.cpu0.data 87979.669877                       # average overall mshr miss latency
system.cpu0.dcache.demand_avg_mshr_miss_latency::total 87979.669877                       # average overall mshr miss latency
system.cpu0.dcache.overall_avg_mshr_miss_latency::.cpu0.data 87979.669877                       # average overall mshr miss latency
system.cpu0.dcache.overall_avg_mshr_miss_latency::total 87979.669877                       # average overall mshr miss latency
system.cpu0.dcache.replacements                347908                       # number of replacements
system.cpu0.dcache.ReadReq_hits::.cpu0.data     10765403                       # number of ReadReq hits
system.cpu0.dcache.ReadReq_hits::total       10765403                       # number of ReadReq hits
system.cpu0.dcache.ReadReq_misses::.cpu0.data       347660                       # number of ReadReq misses
system.cpu0.dcache.ReadReq_misses::total       347660                       # number of ReadReq misses
system.cpu0.dcache.ReadReq_miss_latency::.cpu0.data  30829818654                       # number of ReadReq miss cycles
system.cpu0.dcache.ReadReq_miss_latency::total  30829818654                       # number of ReadReq miss cycles
system.cpu0.dcache.ReadReq_accesses::.cpu0.data     11113063                       # number of ReadReq accesses(hits+misses)
system.cpu0.dcache.ReadReq_accesses::total     11113063                       # number of ReadReq accesses(hits+misses)
system.cpu0.dcache.ReadReq_miss_rate::.cpu0.data     0.031284                       # miss rate for ReadReq accesses
system.cpu0.dcache.ReadReq_miss_rate::total     0.031284                       # miss rate for ReadReq accesses
system.cpu0.dcache.ReadReq_avg_miss_latency::.cpu0.data 88678.072410                       # average ReadReq miss latency
system.cpu0.dcache.ReadReq_avg_miss_latency::total 88678.072410                       # average ReadReq miss latency
system.cpu0.dcache.ReadReq_mshr_misses::.cpu0.data       347660                       # number of ReadReq MSHR misses
system.cpu0.dcache.ReadReq_mshr_misses::total       347660                       # number of ReadReq MSHR misses
system.cpu0.dcache.ReadReq_mshr_miss_latency::.cpu0.data  30598277094                       # number of ReadReq MSHR miss cycles
system.cpu0.dcache.ReadReq_mshr_miss_latency::total  30598277094                       # number of ReadReq MSHR miss cycles
system.cpu0.dcache.ReadReq_mshr_miss_rate::.cpu0.data     0.031284                       # mshr miss rate for ReadReq accesses
system.cpu0.dcache.ReadReq_mshr_miss_rate::total     0.031284                       # mshr miss rate for ReadReq accesses
system.cpu0.dcache.ReadReq_avg_mshr_miss_latency::.cpu0.data 88012.072410                       # average ReadReq mshr miss latency
system.cpu0.dcache.ReadReq_avg_mshr_miss_latency::total 88012.072410                       # average ReadReq mshr miss latency
system.cpu0.dcache.WriteReq_hits::.cpu0.data      5557139                       # number of WriteReq hits
system.cpu0.dcache.WriteReq_hits::total       5557139                       # number of WriteReq hits
system.cpu0.dcache.WriteReq_misses::.cpu0.data          256                       # number of WriteReq misses
system.cpu0.dcache.WriteReq_misses::total          256                       # number of WriteReq misses
system.cpu0.dcache.WriteReq_miss_latency::.cpu0.data     11428227                       # number of WriteReq miss cycles
system.cpu0.dcache.WriteReq_miss_latency::total     11428227                       # number of WriteReq miss cycles
system.cpu0.dcache.WriteReq_accesses::.cpu0.data      5557395                       # number of WriteReq accesses(hits+misses)
system.cpu0.dcache.WriteReq_accesses::total      5557395                       # number of WriteReq accesses(hits+misses)
system.cpu0.dcache.WriteReq_miss_rate::.cpu0.data     0.000046                       # miss rate for WriteReq accesses
system.cpu0.dcache.WriteReq_miss_rate::total     0.000046                       # miss rate for WriteReq accesses
system.cpu0.dcache.WriteReq_avg_miss_latency::.cpu0.data 44641.511719                       # average WriteReq miss latency
system.cpu0.dcache.WriteReq_avg_miss_latency::total 44641.511719                       # average WriteReq miss latency
system.cpu0.dcache.WriteReq_mshr_misses::.cpu0.data          256                       # number of WriteReq MSHR misses
system.cpu0.dcache.WriteReq_mshr_misses::total          256                       # number of WriteReq MSHR misses
system.cpu0.dcache.WriteReq_mshr_miss_latency::.cpu0.data     11257731                       # number of WriteReq MSHR miss cycles
system.cpu0.dcache.WriteReq_mshr_miss_latency::total     11257731                       # number of WriteReq MSHR miss cycles
system.cpu0.dcache.WriteReq_mshr_miss_rate::.cpu0.data     0.000046                       # mshr miss rate for WriteReq accesses
system.cpu0.dcache.WriteReq_mshr_miss_rate::total     0.000046                       # mshr miss rate for WriteReq accesses
system.cpu0.dcache.WriteReq_avg_mshr_miss_latency::.cpu0.data 43975.511719                       # average WriteReq mshr miss latency
system.cpu0.dcache.WriteReq_avg_mshr_miss_latency::total 43975.511719                       # average WriteReq mshr miss latency
system.cpu0.dcache.tags.pwrStateResidencyTicks::UNDEFINED 2283996409308                       # Cumulative time (in ticks) in various power states
system.cpu0.dcache.tags.tagsinuse            7.999997                       # Cycle average of tags in use
system.cpu0.dcache.tags.total_refs           16670458                       # Total number of references to valid blocks.
system.cpu0.dcache.tags.sampled_refs           347916                       # Sample count of references to valid blocks.
system.cpu0.dcache.tags.avg_refs            47.915181                       # Average number of references to valid blocks.
system.cpu0.dcache.tags.warmup_cycle           166167                       # Cycle when the warmup percentage was hit.
system.cpu0.dcache.tags.occ_blocks::.cpu0.data     7.999997                       # Average occupied blocks per requestor
system.cpu0.dcache.tags.occ_percent::.cpu0.data     1.000000                       # Average percentage of cache occupancy
system.cpu0.dcache.tags.occ_percent::total     1.000000                       # Average percentage of cache occupancy
system.cpu0.dcache.tags.occ_task_id_blocks::1024            8                       # Occupied blocks per task id
system.cpu0.dcache.tags.age_task_id_blocks_1024::4            8                       # Occupied blocks per task id
system.cpu0.dcache.tags.occ_task_id_percent::1024            1                       # Percentage of cache occupancy per task id
system.cpu0.dcache.tags.tag_accesses        133711580                       # Number of tag accesses
system.cpu0.dcache.tags.data_accesses       133711580                       # Number of data accesses
system.cpu0.dcache.tags.repl_invalid                0                       # Number of initial replacements
system.cpu0.dcache.tags.repl_valid_tag              0                       # Number of local replacements
system.cpu0.dcache.tags.repl_valid_data             0                       # Number of global replacements
system.cpu1.numPwrStateTransitions                  1                       # Number of power state transitions
system.cpu1.pwrStateResidencyTicks::ON   2283996409308                       # Cumulative time (in ticks) in various power states
system.cpu1.icache.pwrStateResidencyTicks::UNDEFINED 2283996409308                       # Cumulative time (in ticks) in various power states
system.cpu1.icache.demand_hits::.cpu1.inst   1564893113                       # number of demand (read+write) hits
system.cpu1.icache.demand_hits::total      1564893113                       # number of demand (read+write) hits
system.cpu1.icache.overall_hits::.cpu1.inst   1564893113                       # number of overall hits
system.cpu1.icache.overall_hits::total     1564893113                       # number of overall hits
system.cpu1.icache.demand_misses::.cpu1.inst        74659                       # number of demand (read+write) misses
system.cpu1.icache.demand_misses::total         74659                       # number of demand (read+write) misses
system.cpu1.icache.overall_misses::.cpu1.inst        74659                       # number of overall misses
system.cpu1.icache.overall_misses::total        74659                       # number of overall misses
system.cpu1.icache.demand_miss_latency::.cpu1.inst   1459541331                       # number of demand (read+write) miss cycles
system.cpu1.icache.demand_miss_latency::total   1459541331                       # number of demand (read+write) miss cycles
system.cpu1.icache.overall_miss_latency::.cpu1.inst   1459541331                       # number of overall miss cycles
system.cpu1.icache.overall_miss_latency::total   1459541331                       # number of overall miss cycles
system.cpu1.icache.demand_accesses::.cpu1.inst   1564967772                       # number of demand (read+write) accesses
system.cpu1.icache.demand_accesses::total   1564967772                       # number of demand (read+write) accesses
system.cpu1.icache.overall_accesses::.cpu1.inst   1564967772                       # number of overall (read+write) accesses
system.cpu1.icache.overall_accesses::total   1564967772                       # number of overall (read+write) accesses
system.cpu1.icache.demand_miss_rate::.cpu1.inst     0.000048                       # miss rate for demand accesses
system.cpu1.icache.demand_miss_rate::total     0.000048                       # miss rate for demand accesses
system.cpu1.icache.overall_miss_rate::.cpu1.inst     0.000048                       # miss rate for overall accesses
system.cpu1.icache.overall_miss_rate::total     0.000048                       # miss rate for overall accesses
system.cpu1.icache.demand_avg_miss_latency::.cpu1.inst 19549.435848                       # average overall miss latency
system.cpu1.icache.demand_avg_miss_latency::total 19549.435848                       # average overall miss latency
system.cpu1.icache.overall_avg_miss_latency::.cpu1.inst 19549.435848                       # average overall miss latency
system.cpu1.icache.overall_avg_miss_latency::total 19549.435848                       # average overall miss latency
system.cpu1.icache.blocked_cycles::no_mshrs            0                       # number of cycles access was blocked
system.cpu1.icache.blocked_cycles::no_targets            0                       # number of cycles access was blocked
system.cpu1.icache.blocked::no_mshrs                0                       # number of cycles access was blocked
system.cpu1.icache.blocked::no_targets              0                       # number of cycles access was blocked
system.cpu1.icache.avg_blocked_cycles::no_mshrs          nan                       # average number of cycles each access was blocked
system.cpu1.icache.avg_blocked_cycles::no_targets          nan                       # average number of cycles each access was blocked
system.cpu1.icache.writebacks::.writebacks        74147                       # number of writebacks
system.cpu1.icache.writebacks::total            74147                       # number of writebacks
system.cpu1.icache.demand_mshr_misses::.cpu1.inst        74659                       # number of demand (read+write) MSHR misses
system.cpu1.icache.demand_mshr_misses::total        74659                       # number of demand (read+write) MSHR misses
system.cpu1.icache.overall_mshr_misses::.cpu1.inst        74659                       # number of overall MSHR misses
system.cpu1.icache.overall_mshr_misses::total        74659                       # number of overall MSHR misses
system.cpu1.icache.demand_mshr_miss_latency::.cpu1.inst   1409818437                       # number of demand (read+write) MSHR miss cycles
system.cpu1.icache.demand_mshr_miss_latency::total   1409818437                       # number of demand (read+write) MSHR miss cycles
system.cpu1.icache.overall_mshr_miss_latency::.cpu1.inst   1409818437                       # number of overall MSHR miss cycles
system.cpu1.icache.overall_mshr_miss_latency::total   1409818437                       # number of overall MSHR miss cycles
system.cpu1.icache.demand_mshr_miss_rate::.cpu1.inst     0.000048                       # mshr miss rate for demand accesses
system.cpu1.icache.demand_mshr_miss_rate::total     0.000048                       # mshr miss rate for demand accesses
system.cpu1.icache.overall_mshr_miss_rate::.cpu1.inst     0.000048                       # mshr miss rate for overall accesses
system.cpu1.icache.overall_mshr_miss_rate::total     0.000048                       # mshr miss rate for overall accesses
system.cpu1.icache.demand_avg_mshr_miss_latency::.cpu1.inst 18883.435848                       # average overall mshr miss latency
system.cpu1.icache.demand_avg_mshr_miss_latency::total 18883.435848                       # average overall mshr miss latency
system.cpu1.icache.overall_avg_mshr_miss_latency::.cpu1.inst 18883.435848                       # average overall mshr miss latency
system.cpu1.icache.overall_avg_mshr_miss_latency::total 18883.435848                       # average overall mshr miss latency
system.cpu1.icache.replacements                 74147                       # number of replacements
system.cpu1.icache.ReadReq_hits::.cpu1.inst   1564893113                       # number of ReadReq hits
system.cpu1.icache.ReadReq_hits::total     1564893113                       # number of ReadReq hits
system.cpu1.icache.ReadReq_misses::.cpu1.inst        74659                       # number of ReadReq misses
system.cpu1.icache.ReadReq_misses::total        74659                       # number of ReadReq misses
system.cpu1.icache.ReadReq_miss_latency::.cpu1.inst   1459541331                       # number of ReadReq miss cycles
system.cpu1.icache.ReadReq_miss_latency::total   1459541331                       # number of ReadReq miss cycles
system.cpu1.icache.ReadReq_accesses::.cpu1.inst   1564967772                       # number of ReadReq accesses(hits+misses)
system.cpu1.icache.ReadReq_accesses::total   1564967772                       # number of ReadReq accesses(hits+misses)
system.cpu1.icache.ReadReq_miss_rate::.cpu1.inst     0.000048                       # miss rate for ReadReq accesses
system.cpu1.icache.ReadReq_miss_rate::total     0.000048                       # miss rate for ReadReq accesses
system.cpu1.icache.ReadReq_avg_miss_latency::.cpu1.inst 19549.435848                       # average ReadReq miss latency
system.cpu1.icache.ReadReq_avg_miss_latency::total 19549.435848                       # average ReadReq miss latency
system.cpu1.icache.ReadReq_mshr_misses::.cpu1.inst        74659                       # number of ReadReq MSHR misses
system.cpu1.icache.ReadReq_mshr_misses::total        74659                       # number of ReadReq MSHR misses
system.cpu1.icache.ReadReq_mshr_miss_latency::.cpu1.inst   1409818437                       # number of ReadReq MSHR miss cycles
system.cpu1.icache.ReadReq_mshr_miss_latency::total   1409818437                       # number of ReadReq MSHR miss cycles
system.cpu1.icache.ReadReq_mshr_miss_rate::.cpu1.inst     0.000048                       # mshr miss rate for ReadReq accesses
system.cpu1.icache.ReadReq_mshr_miss_rate::total     0.000048                       # mshr miss rate for ReadReq accesses
system.cpu1.icache.ReadReq_avg_mshr_miss_latency::.cpu1.inst 18883.435848                       # average ReadReq mshr miss latency
system.cpu1.icache.ReadReq_avg_mshr_miss_latency::total 18883.435848                       # average ReadReq mshr miss latency
system.cpu1.icache.tags.pwrStateResidencyTicks::UNDEFINED 2283996409308                       # Cumulative time (in ticks) in various power states
system.cpu1.icache.tags.tagsinuse          511.987788                       # Cycle average of tags in use
system.cpu1.icache.tags.total_refs         1564967772                       # Total number of references to valid blocks.
system.cpu1.icache.tags.sampled_refs            74659                       # Sample count of references to valid blocks.
system.cpu1.icache.tags.avg_refs         20961.542105                       # Average number of references to valid blocks.
system.cpu1.icache.tags.warmup_cycle            88245                       # Cycle when the warmup percentage was hit.
system.cpu1.icache.tags.occ_blocks::.cpu1.inst   511.987788                       # Average occupied blocks per requestor
system.cpu1.icache.tags.occ_percent::.cpu1.inst     0.999976                       # Average percentage of cache occupancy
system.cpu1.icache.tags.occ_percent::total     0.999976                       # Average percentage of cache occupancy
system.cpu1.icache.tags.occ_task_id_blocks::1024          512                       # Occupied blocks per task id
system.cpu1.icache.tags.age_task_id_blocks_1024::4          512                       # Occupied blocks per task id
system.cpu1.icache.tags.occ_task_id_percent::1024            1                       # Percentage of cache occupancy per task id
system.cpu1.icache.tags.tag_accesses      12519816835                       # Number of tag accesses
system.cpu1.icache.tags.data_accesses     12519816835                       # Number of data accesses
system.cpu1.icache.tags.repl_invalid                0                       # Number of initial replacements
system.cpu1.icache.tags.repl_valid_tag              0                       # Number of local replacements
system.cpu1.icache.tags.repl_valid_data             0                       # Number of global replacements
system.cpu1.dtb.walker.pwrStateResidencyTicks::UNDEFINED 2283996409308                       # Cumulative time (in ticks) in various power states
system.cpu1.interrupts.clk_domain.clock          5328                       # Clock period in ticks
system.cpu1.itb_walker_cache.pwrStateResidencyTicks::UNDEFINED 2283996409308                       # Cumulative time (in ticks) in various power states
system.cpu1.itb_walker_cache.blocked_cycles::no_mshrs            0                       # number of cycles access was blocked
system.cpu1.itb_walker_cache.blocked_cycles::no_targets            0                       # number of cycles access was blocked
system.cpu1.itb_walker_cache.blocked::no_mshrs            0                       # number of cycles access was blocked
system.cpu1.itb_walker_cache.blocked::no_targets            0                       # number of cycles access was blocked
system.cpu1.itb_walker_cache.avg_blocked_cycles::no_mshrs          nan                       # average number of cycles each access was blocked
system.cpu1.itb_walker_cache.avg_blocked_cycles::no_targets          nan                       # average number of cycles each access was blocked
system.cpu1.itb_walker_cache.replacements            0                       # number of replacements
system.cpu1.itb_walker_cache.tags.pwrStateResidencyTicks::UNDEFINED 2283996409308                       # Cumulative time (in ticks) in various power states
system.cpu1.itb_walker_cache.tags.tagsinuse            0                       # Cycle average of tags in use
system.cpu1.itb_walker_cache.tags.total_refs            0                       # Total number of references to valid blocks.
system.cpu1.itb_walker_cache.tags.sampled_refs            0                       # Sample count of references to valid blocks.
system.cpu1.itb_walker_cache.tags.avg_refs          nan                       # Average number of references to valid blocks.
system.cpu1.itb_walker_cache.tags.warmup_cycle            0                       # Cycle when the warmup percentage was hit.
system.cpu1.itb_walker_cache.tags.tag_accesses            0                       # Number of tag accesses
system.cpu1.itb_walker_cache.tags.data_accesses            0                       # Number of data accesses
system.cpu1.itb_walker_cache.tags.repl_invalid            0                       # Number of initial replacements
system.cpu1.itb_walker_cache.tags.repl_valid_tag            0                       # Number of local replacements
system.cpu1.itb_walker_cache.tags.repl_valid_data            0                       # Number of global replacements
system.cpu1.itb.walker.pwrStateResidencyTicks::UNDEFINED 2283996409308                       # Cumulative time (in ticks) in various power states
system.cpu1.dtb_walker_cache.pwrStateResidencyTicks::UNDEFINED 2283996409308                       # Cumulative time (in ticks) in various power states
system.cpu1.dtb_walker_cache.blocked_cycles::no_mshrs            0                       # number of cycles access was blocked
system.cpu1.dtb_walker_cache.blocked_cycles::no_targets            0                       # number of cycles access was blocked
system.cpu1.dtb_walker_cache.blocked::no_mshrs            0                       # number of cycles access was blocked
system.cpu1.dtb_walker_cache.blocked::no_targets            0                       # number of cycles access was blocked
system.cpu1.dtb_walker_cache.avg_blocked_cycles::no_mshrs          nan                       # average number of cycles each access was blocked
system.cpu1.dtb_walker_cache.avg_blocked_cycles::no_targets          nan                       # average number of cycles each access was blocked
system.cpu1.dtb_walker_cache.replacements            0                       # number of replacements
system.cpu1.dtb_walker_cache.tags.pwrStateResidencyTicks::UNDEFINED 2283996409308                       # Cumulative time (in ticks) in various power states
system.cpu1.dtb_walker_cache.tags.tagsinuse            0                       # Cycle average of tags in use
system.cpu1.dtb_walker_cache.tags.total_refs            0                       # Total number of references to valid blocks.
system.cpu1.dtb_walker_cache.tags.sampled_refs            0                       # Sample count of references to valid blocks.
system.cpu1.dtb_walker_cache.tags.avg_refs          nan                       # Average number of references to valid blocks.
system.cpu1.dtb_walker_cache.tags.warmup_cycle            0                       # Cycle when the warmup percentage was hit.
system.cpu1.dtb_walker_cache.tags.tag_accesses            0                       # Number of tag accesses
system.cpu1.dtb_walker_cache.tags.data_accesses            0                       # Number of data accesses
system.cpu1.dtb_walker_cache.tags.repl_invalid            0                       # Number of initial replacements
system.cpu1.dtb_walker_cache.tags.repl_valid_tag            0                       # Number of local replacements
system.cpu1.dtb_walker_cache.tags.repl_valid_data            0                       # Number of global replacements
system.cpu1.dcache.pwrStateResidencyTicks::UNDEFINED 2283996409308                       # Cumulative time (in ticks) in various power states
system.cpu1.dcache.demand_hits::.cpu1.data    246851614                       # number of demand (read+write) hits
system.cpu1.dcache.demand_hits::total       246851614                       # number of demand (read+write) hits
system.cpu1.dcache.overall_hits::.cpu1.data    246851614                       # number of overall hits
system.cpu1.dcache.overall_hits::total      246851614                       # number of overall hits
system.cpu1.dcache.demand_misses::.cpu1.data     83871879                       # number of demand (read+write) misses
system.cpu1.dcache.demand_misses::total      83871879                       # number of demand (read+write) misses
system.cpu1.dcache.overall_misses::.cpu1.data     83871879                       # number of overall misses
system.cpu1.dcache.overall_misses::total     83871879                       # number of overall misses
system.cpu1.dcache.demand_miss_latency::.cpu1.data 1076004547704                       # number of demand (read+write) miss cycles
system.cpu1.dcache.demand_miss_latency::total 1076004547704                       # number of demand (read+write) miss cycles
system.cpu1.dcache.overall_miss_latency::.cpu1.data 1076004547704                       # number of overall miss cycles
system.cpu1.dcache.overall_miss_latency::total 1076004547704                       # number of overall miss cycles
system.cpu1.dcache.demand_accesses::.cpu1.data    330723493                       # number of demand (read+write) accesses
system.cpu1.dcache.demand_accesses::total    330723493                       # number of demand (read+write) accesses
system.cpu1.dcache.overall_accesses::.cpu1.data    330723493                       # number of overall (read+write) accesses
system.cpu1.dcache.overall_accesses::total    330723493                       # number of overall (read+write) accesses
system.cpu1.dcache.demand_miss_rate::.cpu1.data     0.253601                       # miss rate for demand accesses
system.cpu1.dcache.demand_miss_rate::total     0.253601                       # miss rate for demand accesses
system.cpu1.dcache.overall_miss_rate::.cpu1.data     0.253601                       # miss rate for overall accesses
system.cpu1.dcache.overall_miss_rate::total     0.253601                       # miss rate for overall accesses
system.cpu1.dcache.demand_avg_miss_latency::.cpu1.data 12829.145603                       # average overall miss latency
system.cpu1.dcache.demand_avg_miss_latency::total 12829.145603                       # average overall miss latency
system.cpu1.dcache.overall_avg_miss_latency::.cpu1.data 12829.145603                       # average overall miss latency
system.cpu1.dcache.overall_avg_miss_latency::total 12829.145603                       # average overall miss latency
system.cpu1.dcache.blocked_cycles::no_mshrs            0                       # number of cycles access was blocked
system.cpu1.dcache.blocked_cycles::no_targets            0                       # number of cycles access was blocked
system.cpu1.dcache.blocked::no_mshrs                0                       # number of cycles access was blocked
system.cpu1.dcache.blocked::no_targets              0                       # number of cycles access was blocked
system.cpu1.dcache.avg_blocked_cycles::no_mshrs          nan                       # average number of cycles each access was blocked
system.cpu1.dcache.avg_blocked_cycles::no_targets          nan                       # average number of cycles each access was blocked
system.cpu1.dcache.writebacks::.writebacks     73864772                       # number of writebacks
system.cpu1.dcache.writebacks::total         73864772                       # number of writebacks
system.cpu1.dcache.demand_mshr_misses::.cpu1.data     83871879                       # number of demand (read+write) MSHR misses
system.cpu1.dcache.demand_mshr_misses::total     83871879                       # number of demand (read+write) MSHR misses
system.cpu1.dcache.overall_mshr_misses::.cpu1.data     83871879                       # number of overall MSHR misses
system.cpu1.dcache.overall_mshr_misses::total     83871879                       # number of overall MSHR misses
system.cpu1.dcache.demand_mshr_miss_latency::.cpu1.data 1020145876290                       # number of demand (read+write) MSHR miss cycles
system.cpu1.dcache.demand_mshr_miss_latency::total 1020145876290                       # number of demand (read+write) MSHR miss cycles
system.cpu1.dcache.overall_mshr_miss_latency::.cpu1.data 1020145876290                       # number of overall MSHR miss cycles
system.cpu1.dcache.overall_mshr_miss_latency::total 1020145876290                       # number of overall MSHR miss cycles
system.cpu1.dcache.demand_mshr_miss_rate::.cpu1.data     0.253601                       # mshr miss rate for demand accesses
system.cpu1.dcache.demand_mshr_miss_rate::total     0.253601                       # mshr miss rate for demand accesses
system.cpu1.dcache.overall_mshr_miss_rate::.cpu1.data     0.253601                       # mshr miss rate for overall accesses
system.cpu1.dcache.overall_mshr_miss_rate::total     0.253601                       # mshr miss rate for overall accesses
system.cpu1.dcache.demand_avg_mshr_miss_latency::.cpu1.data 12163.145603                       # average overall mshr miss latency
system.cpu1.dcache.demand_avg_mshr_miss_latency::total 12163.145603                       # average overall mshr miss latency
system.cpu1.dcache.overall_avg_mshr_miss_latency::.cpu1.data 12163.145603                       # average overall mshr miss latency
system.cpu1.dcache.overall_avg_mshr_miss_latency::total 12163.145603                       # average overall mshr miss latency
system.cpu1.dcache.replacements              83871871                       # number of replacements
system.cpu1.dcache.ReadReq_hits::.cpu1.data    194573286                       # number of ReadReq hits
system.cpu1.dcache.ReadReq_hits::total      194573286                       # number of ReadReq hits
system.cpu1.dcache.ReadReq_misses::.cpu1.data     61459820                       # number of ReadReq misses
system.cpu1.dcache.ReadReq_misses::total     61459820                       # number of ReadReq misses
system.cpu1.dcache.ReadReq_miss_latency::.cpu1.data 739363855374                       # number of ReadReq miss cycles
system.cpu1.dcache.ReadReq_miss_latency::total 739363855374                       # number of ReadReq miss cycles
system.cpu1.dcache.ReadReq_accesses::.cpu1.data    256033106                       # number of ReadReq accesses(hits+misses)
system.cpu1.dcache.ReadReq_accesses::total    256033106                       # number of ReadReq accesses(hits+misses)
system.cpu1.dcache.ReadReq_miss_rate::.cpu1.data     0.240046                       # miss rate for ReadReq accesses
system.cpu1.dcache.ReadReq_miss_rate::total     0.240046                       # miss rate for ReadReq accesses
system.cpu1.dcache.ReadReq_avg_miss_latency::.cpu1.data 12030.036134                       # average ReadReq miss latency
system.cpu1.dcache.ReadReq_avg_miss_latency::total 12030.036134                       # average ReadReq miss latency
system.cpu1.dcache.ReadReq_mshr_misses::.cpu1.data     61459820                       # number of ReadReq MSHR misses
system.cpu1.dcache.ReadReq_mshr_misses::total     61459820                       # number of ReadReq MSHR misses
system.cpu1.dcache.ReadReq_mshr_miss_latency::.cpu1.data 698431615254                       # number of ReadReq MSHR miss cycles
system.cpu1.dcache.ReadReq_mshr_miss_latency::total 698431615254                       # number of ReadReq MSHR miss cycles
system.cpu1.dcache.ReadReq_mshr_miss_rate::.cpu1.data     0.240046                       # mshr miss rate for ReadReq accesses
system.cpu1.dcache.ReadReq_mshr_miss_rate::total     0.240046                       # mshr miss rate for ReadReq accesses
system.cpu1.dcache.ReadReq_avg_mshr_miss_latency::.cpu1.data 11364.036134                       # average ReadReq mshr miss latency
system.cpu1.dcache.ReadReq_avg_mshr_miss_latency::total 11364.036134                       # average ReadReq mshr miss latency
system.cpu1.dcache.WriteReq_hits::.cpu1.data     52278328                       # number of WriteReq hits
system.cpu1.dcache.WriteReq_hits::total      52278328                       # number of WriteReq hits
system.cpu1.dcache.WriteReq_misses::.cpu1.data     22412059                       # number of WriteReq misses
system.cpu1.dcache.WriteReq_misses::total     22412059                       # number of WriteReq misses
[...]
system.mem_ctrls.wrQLenPdf::115                     0                       # What write queue length does an incoming req see
system.mem_ctrls.wrQLenPdf::116                     0                       # What write queue length does an incoming req see
system.mem_ctrls.wrQLenPdf::117                     0                       # What write queue length does an incoming req see
system.mem_ctrls.wrQLenPdf::118                     0                       # What write queue length does an incoming req see
system.mem_ctrls.wrQLenPdf::119                     0                       # What write queue length does an incoming req see
system.mem_ctrls.wrQLenPdf::120                     0                       # What write queue length does an incoming req see
system.mem_ctrls.wrQLenPdf::121                     0                       # What write queue length does an incoming req see
system.mem_ctrls.wrQLenPdf::122                     0                       # What write queue length does an incoming req see
system.mem_ctrls.wrQLenPdf::123                     0                       # What write queue length does an incoming req see
system.mem_ctrls.wrQLenPdf::124                     0                       # What write queue length does an incoming req see
system.mem_ctrls.wrQLenPdf::125                     0                       # What write queue length does an incoming req see
system.mem_ctrls.wrQLenPdf::126                     0                       # What write queue length does an incoming req see
system.mem_ctrls.wrQLenPdf::127                     0                       # What write queue length does an incoming req see
system.mem_ctrls.bytesPerActivate::samples      2431916                       # Bytes accessed per row activation
system.mem_ctrls.bytesPerActivate::mean            64                       # Bytes accessed per row activation
system.mem_ctrls.bytesPerActivate::gmean    64.000000                       # Bytes accessed per row activation
system.mem_ctrls.bytesPerActivate::64-71      2431916    100.00%    100.00% # Bytes accessed per row activation
system.mem_ctrls.bytesPerActivate::total      2431916                       # Bytes accessed per row activation
system.mem_ctrls.rdPerTurnAround::samples        51065                       # Reads before turning the bus around for writes
system.mem_ctrls.rdPerTurnAround::mean      30.685342                       # Reads before turning the bus around for writes
system.mem_ctrls.rdPerTurnAround::gmean     19.861675                       # Reads before turning the bus around for writes
system.mem_ctrls.rdPerTurnAround::stdev   1010.571633                       # Reads before turning the bus around for writes
system.mem_ctrls.rdPerTurnAround::0-4095        51054     99.98%     99.98% # Reads before turning the bus around for writes
system.mem_ctrls.rdPerTurnAround::4096-8191            4      0.01%     99.99% # Reads before turning the bus around for writes
system.mem_ctrls.rdPerTurnAround::8192-12287            3      0.01%     99.99% # Reads before turning the bus around for writes
system.mem_ctrls.rdPerTurnAround::12288-16383            3      0.01%    100.00% # Reads before turning the bus around for writes
system.mem_ctrls.rdPerTurnAround::225280-229375            1      0.00%    100.00% # Reads before turning the bus around for writes
system.mem_ctrls.rdPerTurnAround::total         51065                       # Reads before turning the bus around for writes
system.mem_ctrls.wrPerTurnAround::samples        51065                       # Writes before turning the bus around for reads
system.mem_ctrls.wrPerTurnAround::mean      16.938588                       # Writes before turning the bus around for reads
system.mem_ctrls.wrPerTurnAround::gmean     16.910648                       # Writes before turning the bus around for reads
system.mem_ctrls.wrPerTurnAround::stdev      0.974766                       # Writes before turning the bus around for reads
system.mem_ctrls.wrPerTurnAround::16            25918     50.75%     50.75% # Writes before turning the bus around for reads
system.mem_ctrls.wrPerTurnAround::17             2371      4.64%     55.40% # Writes before turning the bus around for reads
system.mem_ctrls.wrPerTurnAround::18            22770     44.59%     99.99% # Writes before turning the bus around for reads
system.mem_ctrls.wrPerTurnAround::19                6      0.01%    100.00% # Writes before turning the bus around for reads
system.mem_ctrls.wrPerTurnAround::total         51065                       # Writes before turning the bus around for reads
system.mem_ctrls.bytesReadDRAM              100284608                       # Total number of bytes read from DRAM
system.mem_ctrls.bytesReadWrQ                    2816                       # Total number of bytes read from write queue
system.mem_ctrls.bytesWritten                55358016                       # Total number of bytes written to DRAM
system.mem_ctrls.bytesReadSys               100287424                       # Total read bytes from the system interface side
system.mem_ctrls.bytesWrittenSys             55361024                       # Total written bytes from the system interface side
system.mem_ctrls.avgRdBW                        43.91                       # Average DRAM read bandwidth in MiByte/s
system.mem_ctrls.avgWrBW                        24.24                       # Average achieved write bandwidth in MiByte/s
system.mem_ctrls.avgRdBWSys                     43.91                       # Average system read bandwidth in MiByte/s
system.mem_ctrls.avgWrBWSys                     24.24                       # Average system write bandwidth in MiByte/s
system.mem_ctrls.peakBW                      19207.00                       # Theoretical peak bandwidth in MiByte/s
system.mem_ctrls.busUtil                         0.35                       # Data bus utilization in percentage
system.mem_ctrls.busUtilRead                     0.23                       # Data bus utilization in percentage for reads
system.mem_ctrls.busUtilWrite                    0.13                       # Data bus utilization in percentage for writes
system.mem_ctrls.totGap                  2283995078307                       # Total gap between requests
system.mem_ctrls.avgGap                     939140.01                       # Average gap between requests
system.mem_ctrls.masterReadBytes::.cpu0.inst        28736                       # Per-master bytes read from memory
system.mem_ctrls.masterReadBytes::.cpu0.data     22236992                       # Per-master bytes read from memory
system.mem_ctrls.masterReadBytes::.cpu1.inst       546688                       # Per-master bytes read from memory
system.mem_ctrls.masterReadBytes::.cpu1.data     77472192                       # Per-master bytes read from memory
system.mem_ctrls.masterWriteBytes::.writebacks     55358016                       # Per-master bytes write to memory
system.mem_ctrls.masterReadRate::.cpu0.inst 12581.455856450477                       # Per-master bytes read from memory rate (Bytes/sec)
system.mem_ctrls.masterReadRate::.cpu0.data 9736001.295526253060                       # Per-master bytes read from memory rate (Bytes/sec)
system.mem_ctrls.masterReadRate::.cpu1.inst 239355.892930512200                       # Per-master bytes read from memory rate (Bytes/sec)
system.mem_ctrls.masterReadRate::.cpu1.data 33919576.967930674553                       # Per-master bytes read from memory rate (Bytes/sec)
system.mem_ctrls.masterWriteRate::.writebacks 24237348.086187332869                       # Per-master bytes write to memory rate (Bytes/sec)
system.mem_ctrls.masterReadAccesses::.cpu0.inst          449                       # Per-master read serviced memory accesses
system.mem_ctrls.masterReadAccesses::.cpu0.data       347453                       # Per-master read serviced memory accesses
system.mem_ctrls.masterReadAccesses::.cpu1.inst         8542                       # Per-master read serviced memory accesses
system.mem_ctrls.masterReadAccesses::.cpu1.data      1210547                       # Per-master read serviced memory accesses
system.mem_ctrls.masterWriteAccesses::.writebacks       865016                       # Per-master write serviced memory accesses
system.mem_ctrls.masterReadTotalLat::.cpu0.inst     16174523                       # Per-master read total memory access latency
system.mem_ctrls.masterReadTotalLat::.cpu0.data  13987026126                       # Per-master read total memory access latency
system.mem_ctrls.masterReadTotalLat::.cpu1.inst    315318426                       # Per-master read total memory access latency
system.mem_ctrls.masterReadTotalLat::.cpu1.data  46345184789                       # Per-master read total memory access latency
system.mem_ctrls.masterWriteTotalLat::.writebacks 125613169256362                       # Per-master write total memory access latency
system.mem_ctrls.masterReadAvgLat::.cpu0.inst     36023.44                       # Per-master read average memory access latency
system.mem_ctrls.masterReadAvgLat::.cpu0.data     40255.88                       # Per-master read average memory access latency
system.mem_ctrls.masterReadAvgLat::.cpu1.inst     36913.89                       # Per-master read average memory access latency
system.mem_ctrls.masterReadAvgLat::.cpu1.data     38284.50                       # Per-master read average memory access latency
system.mem_ctrls.masterWriteAvgLat::.writebacks 145214850.66                       # Per-master write average memory access latency
system.mem_ctrls.pageHitRate                     0.00                       # Row buffer hit rate, read and write combined
system.mem_ctrls.rank1.actEnergy         1895446478.015959                       # Energy for activate commands per rank (pJ)
system.mem_ctrls.rank1.preEnergy         3346192051.575124                       # Energy for precharge commands per rank (pJ)
system.mem_ctrls.rank1.readEnergy        2148274074.510499                       # Energy for read commands per rank (pJ)
system.mem_ctrls.rank1.writeEnergy       1019829345.023193                       # Energy for write commands per rank (pJ)
system.mem_ctrls.rank1.refreshEnergy     198263577186.003998                       # Energy for refresh commands per rank (pJ)
system.mem_ctrls.rank1.actBackEnergy     60592280271.052399                       # Energy for active background per rank (pJ)
system.mem_ctrls.rank1.preBackEnergy     703666224588.577393                       # Energy for precharge background per rank (pJ)
system.mem_ctrls.rank1.actPowerDownEnergy            0                       # Energy for active power-down per rank (pJ)
system.mem_ctrls.rank1.prePowerDownEnergy            0                       # Energy for precharge power-down per rank (pJ)
system.mem_ctrls.rank1.selfRefreshEnergy            0                       # Energy for self refresh per rank (pJ)
system.mem_ctrls.rank1.totalEnergy       970931824001.993652                       # Total energy per rank (pJ)
system.mem_ctrls.rank1.averagePower        425.102167                       # Core power per rank (mW)
system.mem_ctrls.rank1.totalIdleTime                0                       # Total Idle time Per DRAM Rank
system.mem_ctrls.rank1.memoryStateTime::IDLE 2140368363826                       # Time in different power states
system.mem_ctrls.rank1.memoryStateTime::REF 102673200000                       # Time in different power states
system.mem_ctrls.rank1.memoryStateTime::SREF            0                       # Time in different power states
system.mem_ctrls.rank1.memoryStateTime::PRE_PDN            0                       # Time in different power states
system.mem_ctrls.rank1.memoryStateTime::ACT  40954845482                       # Time in different power states
system.mem_ctrls.rank1.memoryStateTime::ACT_PDN            0                       # Time in different power states
system.mem_ctrls.rank0.actEnergy         1896824966.399964                       # Energy for activate commands per rank (pJ)
system.mem_ctrls.rank0.preEnergy         3348625613.760721                       # Energy for precharge commands per rank (pJ)
system.mem_ctrls.rank0.readEnergy        2149708612.465699                       # Energy for read commands per rank (pJ)
system.mem_ctrls.rank0.writeEnergy       1020680964.239190                       # Energy for write commands per rank (pJ)
system.mem_ctrls.rank0.refreshEnergy     198263577186.003998                       # Energy for refresh commands per rank (pJ)
system.mem_ctrls.rank0.actBackEnergy     60602052288.681274                       # Energy for active background per rank (pJ)
system.mem_ctrls.rank0.preBackEnergy     703659478424.134521                       # Energy for precharge background per rank (pJ)
system.mem_ctrls.rank0.actPowerDownEnergy            0                       # Energy for active power-down per rank (pJ)
system.mem_ctrls.rank0.prePowerDownEnergy            0                       # Energy for precharge power-down per rank (pJ)
system.mem_ctrls.rank0.selfRefreshEnergy            0                       # Energy for self refresh per rank (pJ)
system.mem_ctrls.rank0.totalEnergy       970940948062.907349                       # Total energy per rank (pJ)
system.mem_ctrls.rank0.averagePower        425.106162                       # Core power per rank (mW)
system.mem_ctrls.rank0.totalIdleTime                0                       # Total Idle time Per DRAM Rank
system.mem_ctrls.rank0.memoryStateTime::IDLE 2140340965115                       # Time in different power states
system.mem_ctrls.rank0.memoryStateTime::REF 102673200000                       # Time in different power states
system.mem_ctrls.rank0.memoryStateTime::SREF            0                       # Time in different power states
system.mem_ctrls.rank0.memoryStateTime::PRE_PDN            0                       # Time in different power states
system.mem_ctrls.rank0.memoryStateTime::ACT  40982244193                       # Time in different power states
system.mem_ctrls.rank0.memoryStateTime::ACT_PDN            0                       # Time in different power states
system.cpu_clk_domain.clock                       333                       # Clock period in ticks
system.tol2bus.pwrStateResidencyTicks::UNDEFINED 2283996409308                       # Cumulative time (in ticks) in various power states
system.tol2bus.trans_dist::ReadResp          61882588                       # Transaction distribution
system.tol2bus.trans_dist::WritebackDirty     74730323                       # Transaction distribution
system.tol2bus.trans_dist::WritebackClean        74165                       # Transaction distribution
system.tol2bus.trans_dist::CleanEvict        10794998                       # Transaction distribution
system.tol2bus.trans_dist::ReadExReq         22412315                       # Transaction distribution
system.tol2bus.trans_dist::ReadExResp        22412315                       # Transaction distribution
system.tol2bus.trans_dist::ReadCleanReq         75108                       # Transaction distribution
system.tol2bus.trans_dist::ReadSharedReq     61807480                       # Transaction distribution
system.tol2bus.pkt_count_system.cpu0.icache.mem_side::system.l2.cpu_side          916                       # Packet count per connected master and slave (bytes)
system.tol2bus.pkt_count_system.cpu0.dcache.mem_side::system.l2.cpu_side      1043740                       # Packet count per connected master and slave (bytes)
system.tol2bus.pkt_count_system.cpu1.icache.mem_side::system.l2.cpu_side       223465                       # Packet count per connected master and slave (bytes)
system.tol2bus.pkt_count_system.cpu1.dcache.mem_side::system.l2.cpu_side    251615629                       # Packet count per connected master and slave (bytes)
system.tol2bus.pkt_count::total             252883750                       # Packet count per connected master and slave (bytes)
system.tol2bus.pkt_size_system.cpu0.icache.mem_side::system.l2.cpu_side        29888                       # Cumulative packet size per connected master and slave (bytes)
system.tol2bus.pkt_size_system.cpu0.dcache.mem_side::system.l2.cpu_side     22300864                       # Cumulative packet size per connected master and slave (bytes)
system.tol2bus.pkt_size_system.cpu1.icache.mem_side::system.l2.cpu_side      9523584                       # Cumulative packet size per connected master and slave (bytes)
system.tol2bus.pkt_size_system.cpu1.dcache.mem_side::system.l2.cpu_side  10095145664                       # Cumulative packet size per connected master and slave (bytes)
system.tol2bus.pkt_size::total            10127000000                       # Cumulative packet size per connected master and slave (bytes)
system.tol2bus.snoops                         1305542                       # Total snoops (count)
system.tol2bus.snoopTraffic                  55361024                       # Total snoop traffic (bytes)
system.tol2bus.snoop_fanout::samples         85600445                       # Request fanout histogram
system.tol2bus.snoop_fanout::mean            0.000019                       # Request fanout histogram
system.tol2bus.snoop_fanout::stdev           0.004393                       # Request fanout histogram
system.tol2bus.snoop_fanout::underflows             0      0.00%      0.00% # Request fanout histogram
system.tol2bus.snoop_fanout::0               85598793    100.00%    100.00% # Request fanout histogram
system.tol2bus.snoop_fanout::1                   1652      0.00%    100.00% # Request fanout histogram
system.tol2bus.snoop_fanout::2                      0      0.00%    100.00% # Request fanout histogram
system.tol2bus.snoop_fanout::3                      0      0.00%    100.00% # Request fanout histogram
system.tol2bus.snoop_fanout::4                      0      0.00%    100.00% # Request fanout histogram
system.tol2bus.snoop_fanout::5                      0      0.00%    100.00% # Request fanout histogram
system.tol2bus.snoop_fanout::6                      0      0.00%    100.00% # Request fanout histogram
system.tol2bus.snoop_fanout::7                      0      0.00%    100.00% # Request fanout histogram
system.tol2bus.snoop_fanout::8                      0      0.00%    100.00% # Request fanout histogram
system.tol2bus.snoop_fanout::overflows              0      0.00%    100.00% # Request fanout histogram
system.tol2bus.snoop_fanout::min_value              0                       # Request fanout histogram
system.tol2bus.snoop_fanout::max_value              1                       # Request fanout histogram
system.tol2bus.snoop_fanout::total           85600445                       # Request fanout histogram
system.tol2bus.reqLayer0.occupancy       105383774403                       # Layer occupancy (ticks)
system.tol2bus.reqLayer0.utilization              4.6                       # Layer utilization (%)
system.tol2bus.respLayer5.occupancy       83788007121                       # Layer occupancy (ticks)
system.tol2bus.respLayer5.utilization             3.7                       # Layer utilization (%)
system.tol2bus.respLayer4.occupancy          74584341                       # Layer occupancy (ticks)
system.tol2bus.respLayer4.utilization             0.0                       # Layer utilization (%)
system.tol2bus.respLayer1.occupancy         349191896                       # Layer occupancy (ticks)
system.tol2bus.respLayer1.utilization             0.0                       # Layer utilization (%)
system.tol2bus.respLayer0.occupancy            450211                       # Layer occupancy (ticks)
system.tol2bus.respLayer0.utilization             0.0                       # Layer utilization (%)

---------- End Simulation Statistics   ----------
