
---------- Begin Simulation Statistics ----------
final_tick                               3008619629073                       # Number of ticks from beginning of simulation (restored from checkpoints and never reset)
host_inst_rate                                 548541                       # Simulator instruction rate (inst/s)
host_mem_usage                                9680712                       # Number of bytes of host memory used
host_op_rate                                   977469                       # Simulator op (including micro ops) rate (op/s)
host_seconds                                  1873.68                       # Real time elapsed on the host
host_tick_rate                             1605730612                       # Simulator tick rate (ticks/s)
sim_freq                                 1000000000000                       # Frequency of simulated ticks
sim_insts                                  1027788099                       # Number of instructions simulated
sim_ops                                    1831461231                       # Number of ops (including micro ops) simulated
sim_seconds                                  3.008620                       # Number of seconds simulated
sim_ticks                                3008619629073                       # Number of ticks simulated
system.cpu0.Branches                          2780018                       # Number of branches fetched
system.cpu0.committedInsts                   27788099                       # Number of instructions committed
system.cpu0.committedOps                     52797721                       # Number of ops (including micro ops) committed
system.cpu0.dtb.rdAccesses                   11113063                       # TLB accesses on read requests
system.cpu0.dtb.rdMisses                         5446                       # TLB misses on read requests
system.cpu0.dtb.wrAccesses                    5557395                       # TLB accesses on write requests
system.cpu0.dtb.wrMisses                            8                       # TLB misses on write requests
system.cpu0.idle_fraction                    0.977511                       # Percentage of idle cycles
system.cpu0.itb.rdAccesses                          0                       # TLB accesses on read requests
system.cpu0.itb.rdMisses                            0                       # TLB misses on read requests
system.cpu0.itb.wrAccesses                   38902351                       # TLB accesses on write requests
system.cpu0.itb.wrMisses                           46                       # TLB misses on write requests
system.cpu0.not_idle_fraction                0.022489                       # Percentage of non-idle cycles
system.cpu0.numCycles                       203184871                       # number of cpu cycles simulated
system.cpu0.numWorkItemsCompleted                   0                       # number of work items this cpu completed
system.cpu0.numWorkItemsStarted                     0                       # number of work items this cpu started
system.cpu0.num_busy_cycles              4569405.330486                       # Number of busy cycles
system.cpu0.num_cc_register_reads            13899961                       # number of times the CC registers were read
system.cpu0.num_cc_register_writes           16672913                       # number of times the CC registers were written
system.cpu0.num_conditional_control_insts      2779471                       # number of instructions that are conditional controls
system.cpu0.num_fp_alu_accesses                  1214                       # Number of float alu accesses
system.cpu0.num_fp_insts                         1214                       # number of float instructions
system.cpu0.num_fp_register_reads                1401                       # number of times the floating registers were read
system.cpu0.num_fp_register_writes                679                       # number of times the floating registers were written
system.cpu0.num_func_calls                        384                       # number of times a function call or return occured
system.cpu0.num_idle_cycles              198615465.669514                       # Number of idle cycles
system.cpu0.num_int_alu_accesses             52796880                       # Number of integer alu accesses
system.cpu0.num_int_insts                    52796880                       # number of integer instructions
system.cpu0.num_int_register_reads          105592520                       # number of times the integer registers were read
system.cpu0.num_int_register_writes          44459432                       # number of times the integer registers were written
system.cpu0.num_load_insts                   11113060                       # Number of load instructions
system.cpu0.num_mem_refs                     16670454                       # number of memory refs
system.cpu0.num_store_insts                   5557394                       # Number of store instructions
system.cpu0.num_vec_alu_accesses                    0                       # Number of vector alu accesses
system.cpu0.num_vec_insts                           0                       # number of vector instructions
system.cpu0.num_vec_register_reads                  0                       # number of times the vector registers were read
system.cpu0.num_vec_register_writes                 0                       # number of times the vector registers were written
system.cpu0.op_class::No_OpClass                  336      0.00%      0.00% # Class of executed instruction
system.cpu0.op_class::IntAlu                 36126368     68.42%     68.42% # Class of executed instruction
system.cpu0.op_class::IntMult                       5      0.00%     68.42% # Class of executed instruction
system.cpu0.op_class::IntDiv                       28      0.00%     68.42% # Class of executed instruction
system.cpu0.op_class::FloatAdd                    144      0.00%     68.43% # Class of executed instruction
system.cpu0.op_class::FloatCmp                      0      0.00%     68.43% # Class of executed instruction
system.cpu0.op_class::FloatCvt                      0      0.00%     68.43% # Class of executed instruction
system.cpu0.op_class::FloatMult                     0      0.00%     68.43% # Class of executed instruction
system.cpu0.op_class::FloatMultAcc                  0      0.00%     68.43% # Class of executed instruction
system.cpu0.op_class::FloatDiv                      0      0.00%     68.43% # Class of executed instruction
system.cpu0.op_class::FloatMisc                     0      0.00%     68.43% # Class of executed instruction
system.cpu0.op_class::FloatSqrt                     0      0.00%     68.43% # Class of executed instruction
system.cpu0.op_class::SimdAdd                       0      0.00%     68.43% # Class of executed instruction
system.cpu0.op_class::SimdAddAcc                    0      0.00%     68.43% # Class of executed instruction
system.cpu0.op_class::SimdAlu                     104      0.00%     68.43% # Class of executed instruction
system.cpu0.op_class::SimdCmp                       0      0.00%     68.43% # Class of executed instruction
system.cpu0.op_class::SimdCvt                      54      0.00%     68.43% # Class of executed instruction
system.cpu0.op_class::SimdMisc                    228      0.00%     68.43% # Class of executed instruction
system.cpu0.op_class::SimdMult                      0      0.00%     68.43% # Class of executed instruction
system.cpu0.op_class::SimdMultAcc                   0      0.00%     68.43% # Class of executed instruction
system.cpu0.op_class::SimdShift                     0      0.00%     68.43% # Class of executed instruction
system.cpu0.op_class::SimdShiftAcc                  0      0.00%     68.43% # Class of executed instruction
system.cpu0.op_class::SimdDiv                       0      0.00%     68.43% # Class of executed instruction
system.cpu0.op_class::SimdSqrt                      0      0.00%     68.43% # Class of executed instruction
system.cpu0.op_class::SimdFloatAdd                  0      0.00%     68.43% # Class of executed instruction
system.cpu0.op_class::SimdFloatAlu                  0      0.00%     68.43% # Class of executed instruction
system.cpu0.op_class::SimdFloatCmp                  0      0.00%     68.43% # Class of executed instruction
system.cpu0.op_class::SimdFloatCvt                  0      0.00%     68.43% # Class of executed instruction
system.cpu0.op_class::SimdFloatDiv                  0      0.00%     68.43% # Class of executed instruction
system.cpu0.op_class::SimdFloatMisc                 0      0.00%     68.43% # Class of executed instruction
system.cpu0.op_class::SimdFloatMult                 0      0.00%     68.43% # Class of executed instruction
system.cpu0.op_class::SimdFloatMultAcc              0      0.00%     68.43% # Class of executed instruction
system.cpu0.op_class::SimdFloatSqrt                 0      0.00%     68.43% # Class of executed instruction
system.cpu0.op_class::SimdReduceAdd                 0      0.00%     68.43% # Class of executed instruction
system.cpu0.op_class::SimdReduceAlu                 0      0.00%     68.43% # Class of executed instruction
system.cpu0.op_class::SimdReduceCmp                 0      0.00%     68.43% # Class of executed instruction
system.cpu0.op_class::SimdFloatReduceAdd            0      0.00%     68.43% # Class of executed instruction
system.cpu0.op_class::SimdFloatReduceCmp            0      0.00%     68.43% # Class of executed instruction
system.cpu0.op_class::SimdAes                       0      0.00%     68.43% # Class of executed instruction
system.cpu0.op_class::SimdAesMix                    0      0.00%     68.43% # Class of executed instruction
system.cpu0.op_class::SimdSha1Hash                  0      0.00%     68.43% # Class of executed instruction
system.cpu0.op_class::SimdSha1Hash2                 0      0.00%     68.43% # Class of executed instruction
system.cpu0.op_class::SimdSha256Hash                0      0.00%     68.43% # Class of executed instruction
system.cpu0.op_class::SimdSha256Hash2               0      0.00%     68.43% # Class of executed instruction
system.cpu0.op_class::SimdShaSigma2                 0      0.00%     68.43% # Class of executed instruction
system.cpu0.op_class::SimdShaSigma3                 0      0.00%     68.43% # Class of executed instruction
system.cpu0.op_class::SimdPredAlu                   0      0.00%     68.43% # Class of executed instruction
system.cpu0.op_class::MemRead                11113000     21.05%     89.47% # Class of executed instruction
system.cpu0.op_class::MemWrite                5556913     10.52%    100.00% # Class of executed instruction
system.cpu0.op_class::FloatMemRead                 60      0.00%    100.00% # Class of executed instruction
system.cpu0.op_class::FloatMemWrite               481      0.00%    100.00% # Class of executed instruction
system.cpu0.op_class::IprAccess                     0      0.00%    100.00% # Class of executed instruction
system.cpu0.op_class::InstPrefetch                  0      0.00%    100.00% # Class of executed instruction
system.cpu0.op_class::total                  52797721                       # Class of executed instruction
system.cpu0.workload.numSyscalls                   12                       # Number of system calls
system.cpu1.Branches                        235945707                       # Number of branches fetched
system.cpu1.committedInsts                 1000000000                       # Number of instructions committed
system.cpu1.committedOps                   1778663510                       # Number of ops (including micro ops) committed
system.cpu1.dtb.rdAccesses                  301390361                       # TLB accesses on read requests
system.cpu1.dtb.rdMisses                     18835341                       # TLB misses on read requests
system.cpu1.dtb.wrAccesses                  114776714                       # TLB accesses on write requests
system.cpu1.dtb.wrMisses                       552180                       # TLB misses on write requests
system.cpu1.idle_fraction                           0                       # Percentage of idle cycles
system.cpu1.itb.rdAccesses                          0                       # TLB accesses on read requests
system.cpu1.itb.rdMisses                            0                       # TLB misses on read requests
system.cpu1.itb.wrAccesses                 1278068988                       # TLB accesses on write requests
system.cpu1.itb.wrMisses                           61                       # TLB misses on write requests
system.cpu1.not_idle_fraction                       1                       # Percentage of non-idle cycles
system.cpu1.numCycles                      9034893781                       # number of cpu cycles simulated
system.cpu1.numWorkItemsCompleted                   0                       # number of work items this cpu completed
system.cpu1.numWorkItemsStarted                     0                       # number of work items this cpu started
system.cpu1.num_busy_cycles                9034893781                       # Number of busy cycles
system.cpu1.num_cc_register_reads          1194687207                       # number of times the CC registers were read
system.cpu1.num_cc_register_writes          549028320                       # number of times the CC registers were written
system.cpu1.num_conditional_control_insts    187919433                       # number of instructions that are conditional controls
system.cpu1.num_fp_alu_accesses              16784849                       # Number of float alu accesses
system.cpu1.num_fp_insts                     16784849                       # number of float instructions
system.cpu1.num_fp_register_reads            17600009                       # number of times the floating registers were read
system.cpu1.num_fp_register_writes           10349970                       # number of times the floating registers were written
system.cpu1.num_func_calls                   33951343                       # number of times a function call or return occured
system.cpu1.num_idle_cycles                         0                       # Number of idle cycles
system.cpu1.num_int_alu_accesses           1751848982                       # Number of integer alu accesses
system.cpu1.num_int_insts                  1751848982                       # number of integer instructions
system.cpu1.num_int_register_reads         3533242593                       # number of times the integer registers were read
system.cpu1.num_int_register_writes        1411266192                       # number of times the integer registers were written
system.cpu1.num_load_insts                  301350804                       # Number of load instructions
system.cpu1.num_mem_refs                    416127511                       # number of memory refs
system.cpu1.num_store_insts                 114776707                       # Number of store instructions
system.cpu1.num_vec_alu_accesses                    0                       # Number of vector alu accesses
system.cpu1.num_vec_insts                           0                       # number of vector instructions
system.cpu1.num_vec_register_reads                  0                       # number of times the vector registers were read
system.cpu1.num_vec_register_writes                 0                       # number of times the vector registers were written
system.cpu1.op_class::No_OpClass             20195478      1.14%      1.14% # Class of executed instruction
system.cpu1.op_class::IntAlu               1326816945     74.60%     75.73% # Class of executed instruction
system.cpu1.op_class::IntMult                 3164679      0.18%     75.91% # Class of executed instruction
system.cpu1.op_class::IntDiv                  4825055      0.27%     76.18% # Class of executed instruction
system.cpu1.op_class::FloatAdd                2088766      0.12%     76.30% # Class of executed instruction
system.cpu1.op_class::FloatCmp                      0      0.00%     76.30% # Class of executed instruction
system.cpu1.op_class::FloatCvt                      0      0.00%     76.30% # Class of executed instruction
system.cpu1.op_class::FloatMult                     0      0.00%     76.30% # Class of executed instruction
system.cpu1.op_class::FloatMultAcc                  0      0.00%     76.30% # Class of executed instruction
system.cpu1.op_class::FloatDiv                      0      0.00%     76.30% # Class of executed instruction
system.cpu1.op_class::FloatMisc                     0      0.00%     76.30% # Class of executed instruction
system.cpu1.op_class::FloatSqrt                     0      0.00%     76.30% # Class of executed instruction
system.cpu1.op_class::SimdAdd                       0      0.00%     76.30% # Class of executed instruction
system.cpu1.op_class::SimdAddAcc                    0      0.00%     76.30% # Class of executed instruction
system.cpu1.op_class::SimdAlu                  356154      0.02%     76.32% # Class of executed instruction
system.cpu1.op_class::SimdCmp                      32      0.00%     76.32% # Class of executed instruction
system.cpu1.op_class::SimdCvt                  780858      0.04%     76.36% # Class of executed instruction
system.cpu1.op_class::SimdMisc                4308032      0.24%     76.60% # Class of executed instruction
system.cpu1.op_class::SimdMult                      0      0.00%     76.60% # Class of executed instruction
system.cpu1.op_class::SimdMultAcc                   0      0.00%     76.60% # Class of executed instruction
system.cpu1.op_class::SimdShift                     0      0.00%     76.60% # Class of executed instruction
system.cpu1.op_class::SimdShiftAcc                  0      0.00%     76.60% # Class of executed instruction
system.cpu1.op_class::SimdDiv                       0      0.00%     76.60% # Class of executed instruction
system.cpu1.op_class::SimdSqrt                      0      0.00%     76.60% # Class of executed instruction
system.cpu1.op_class::SimdFloatAdd                  0      0.00%     76.60% # Class of executed instruction
system.cpu1.op_class::SimdFloatAlu                  0      0.00%     76.60% # Class of executed instruction
system.cpu1.op_class::SimdFloatCmp                  0      0.00%     76.60% # Class of executed instruction
system.cpu1.op_class::SimdFloatCvt                  0      0.00%     76.60% # Class of executed instruction
system.cpu1.op_class::SimdFloatDiv                  0      0.00%     76.60% # Class of executed instruction
system.cpu1.op_class::SimdFloatMisc                 0      0.00%     76.60% # Class of executed instruction
system.cpu1.op_class::SimdFloatMult                 0      0.00%     76.60% # Class of executed instruction
system.cpu1.op_class::SimdFloatMultAcc              0      0.00%     76.60% # Class of executed instruction
system.cpu1.op_class::SimdFloatSqrt                 0      0.00%     76.60% # Class of executed instruction
system.cpu1.op_class::SimdReduceAdd                 0      0.00%     76.60% # Class of executed instruction
system.cpu1.op_class::SimdReduceAlu                 0      0.00%     76.60% # Class of executed instruction
system.cpu1.op_class::SimdReduceCmp                 0      0.00%     76.60% # Class of executed instruction
system.cpu1.op_class::SimdFloatReduceAdd            0      0.00%     76.60% # Class of executed instruction
system.cpu1.op_class::SimdFloatReduceCmp            0      0.00%     76.60% # Class of executed instruction
system.cpu1.op_class::SimdAes                       0      0.00%     76.60% # Class of executed instruction
system.cpu1.op_class::SimdAesMix                    0      0.00%     76.60% # Class of executed instruction
system.cpu1.op_class::SimdSha1Hash                  0      0.00%     76.60% # Class of executed instruction
system.cpu1.op_class::SimdSha1Hash2                 0      0.00%     76.60% # Class of executed instruction
system.cpu1.op_class::SimdSha256Hash                0      0.00%     76.60% # Class of executed instruction
system.cpu1.op_class::SimdSha256Hash2               0      0.00%     76.60% # Class of executed instruction
system.cpu1.op_class::SimdShaSigma2                 0      0.00%     76.60% # Class of executed instruction
system.cpu1.op_class::SimdShaSigma3                 0      0.00%     76.60% # Class of executed instruction
system.cpu1.op_class::SimdPredAlu                   0      0.00%     76.60% # Class of executed instruction
system.cpu1.op_class::MemRead               298976779     16.81%     93.41% # Class of executed instruction
system.cpu1.op_class::MemWrite              109122620      6.14%     99.55% # Class of executed instruction
system.cpu1.op_class::FloatMemRead            2374025      0.13%     99.68% # Class of executed instruction
system.cpu1.op_class::FloatMemWrite           5654087      0.32%    100.00% # Class of executed instruction
system.cpu1.op_class::IprAccess                     0      0.00%    100.00% # Class of executed instruction
system.cpu1.op_class::InstPrefetch                  0      0.00%    100.00% # Class of executed instruction
system.cpu1.op_class::total                1778663510                       # Class of executed instruction
system.cpu1.workload.numSyscalls                  307                       # Number of system calls
system.membus.snoop_filter.hit_multi_requests            0                       # Number of requests hitting in the snoop filter with multiple (>1) holders of the requested data.
system.membus.snoop_filter.hit_multi_snoops            0                       # Number of snoops hitting in the snoop filter with multiple (>1) holders of the requested data.
system.membus.snoop_filter.hit_single_requests      6875861                       # Number of requests hitting in the snoop filter with a single holder of the requested data.
system.membus.snoop_filter.hit_single_snoops            0                       # Number of snoops hitting in the snoop filter with a single holder of the requested data.
system.membus.snoop_filter.tot_requests      14014708                       # Total number of requests made to the snoop filter.
system.membus.snoop_filter.tot_snoops               0                       # Total number of snoops made to the snoop filter.
system.tol2bus.snoop_filter.hit_multi_requests            0                       # Number of requests hitting in the snoop filter with multiple (>1) holders of the requested data.
system.tol2bus.snoop_filter.hit_multi_snoops            0                       # Number of snoops hitting in the snoop filter with multiple (>1) holders of the requested data.
system.tol2bus.snoop_filter.hit_single_requests    124324548                       # Number of requests hitting in the snoop filter with a single holder of the requested data.
system.tol2bus.snoop_filter.hit_single_snoops         1025                       # Number of snoops hitting in the snoop filter with a single holder of the requested data.
system.tol2bus.snoop_filter.tot_requests    248650055                       # Total number of requests made to the snoop filter.
system.tol2bus.snoop_filter.tot_snoops           1025                       # Total number of snoops made to the snoop filter.
system.membus.pwrStateResidencyTicks::UNDEFINED 3008619629073                       # Cumulative time (in ticks) in various power states
system.membus.trans_dist::ReadResp            6786482                       # Transaction distribution
system.membus.trans_dist::WritebackDirty       321273                       # Transaction distribution
system.membus.trans_dist::CleanEvict          6554588                       # Transaction distribution
system.membus.trans_dist::ReadExReq            352365                       # Transaction distribution
system.membus.trans_dist::ReadExResp           352365                       # Transaction distribution
system.membus.trans_dist::ReadSharedReq       6786482                       # Transaction distribution
system.membus.pkt_count_system.l2.mem_side::system.mem_ctrls.port     21153555                       # Packet count per connected master and slave (bytes)
system.membus.pkt_count_system.l2.mem_side::total     21153555                       # Packet count per connected master and slave (bytes)
system.membus.pkt_count::total               21153555                       # Packet count per connected master and slave (bytes)
system.membus.pkt_size_system.l2.mem_side::system.mem_ctrls.port    477447680                       # Cumulative packet size per connected master and slave (bytes)
system.membus.pkt_size_system.l2.mem_side::total    477447680                       # Cumulative packet size per connected master and slave (bytes)
system.membus.pkt_size::total               477447680                       # Cumulative packet size per connected master and slave (bytes)
system.membus.snoops                                0                       # Total snoops (count)
system.membus.snoopTraffic                          0                       # Total snoop traffic (bytes)
system.membus.snoop_fanout::samples           7138847                       # Request fanout histogram
system.membus.snoop_fanout::mean                    0                       # Request fanout histogram
system.membus.snoop_fanout::stdev                   0                       # Request fanout histogram
system.membus.snoop_fanout::underflows              0      0.00%      0.00% # Request fanout histogram
system.membus.snoop_fanout::0                 7138847    100.00%    100.00% # Request fanout histogram
system.membus.snoop_fanout::1                       0      0.00%    100.00% # Request fanout histogram
system.membus.snoop_fanout::overflows               0      0.00%    100.00% # Request fanout histogram
system.membus.snoop_fanout::min_value               0                       # Request fanout histogram
system.membus.snoop_fanout::max_value               0                       # Request fanout histogram
system.membus.snoop_fanout::total             7138847                       # Request fanout histogram
system.membus.reqLayer4.occupancy         23723695067                       # Layer occupancy (ticks)
system.membus.reqLayer4.utilization               0.8                       # Layer utilization (%)
system.membus.respLayer1.occupancy        38198855699                       # Layer occupancy (ticks)
system.membus.respLayer1.utilization              1.3                       # Layer utilization (%)
system.voltage_domain.voltage                       1                       # Voltage in Volts
system.clk_domain.clock                          1000                       # Clock period in ticks
system.cpu0.numPwrStateTransitions                  1                       # Number of power state transitions
system.cpu0.pwrStateResidencyTicks::ON   3008619629073                       # Cumulative time (in ticks) in various power states
system.cpu0.icache.pwrStateResidencyTicks::UNDEFINED 3008619629073                       # Cumulative time (in ticks) in various power states
system.cpu0.icache.demand_hits::.cpu0.inst     38901902                       # number of demand (read+write) hits
system.cpu0.icache.demand_hits::total        38901902                       # number of demand (read+write) hits
system.cpu0.icache.overall_hits::.cpu0.inst     38901902                       # number of overall hits
system.cpu0.icache.overall_hits::total       38901902                       # number of overall hits
system.cpu0.icache.demand_misses::.cpu0.inst          449                       # number of demand (read+write) misses
system.cpu0.icache.demand_misses::total           449                       # number of demand (read+write) misses
system.cpu0.icache.overall_misses::.cpu0.inst          449                       # number of overall misses
system.cpu0.icache.overall_misses::total          449                       # number of overall misses
system.cpu0.icache.demand_miss_latency::.cpu0.inst     38183445                       # number of demand (read+write) miss cycles
system.cpu0.icache.demand_miss_latency::total     38183445                       # number of demand (read+write) miss cycles
system.cpu0.icache.overall_miss_latency::.cpu0.inst     38183445                       # number of overall miss cycles
system.cpu0.icache.overall_miss_latency::total     38183445                       # number of overall miss cycles
system.cpu0.icache.demand_accesses::.cpu0.inst     38902351                       # number of demand (read+write) accesses
system.cpu0.icache.demand_accesses::total     38902351                       # number of demand (read+write) accesses
system.cpu0.icache.overall_accesses::.cpu0.inst     38902351                       # number of overall (read+write) accesses
system.cpu0.icache.overall_accesses::total     38902351                       # number of overall (read+write) accesses
system.cpu0.icache.demand_miss_rate::.cpu0.inst     0.000012                       # miss rate for demand accesses
system.cpu0.icache.demand_miss_rate::total     0.000012                       # miss rate for demand accesses
system.cpu0.icache.overall_miss_rate::.cpu0.inst     0.000012                       # miss rate for overall accesses
system.cpu0.icache.overall_miss_rate::total     0.000012                       # miss rate for overall accesses
system.cpu0.icache.demand_avg_miss_latency::.cpu0.inst 85041.080178                       # average overall miss latency
system.cpu0.icache.demand_avg_miss_latency::total 85041.080178                       # average overall miss latency
system.cpu0.icache.overall_avg_miss_latency::.cpu0.inst 85041.080178                       # average overall miss latency
system.cpu0.icache.overall_avg_miss_latency::total 85041.080178                       # average overall miss latency
system.cpu0.icache.blocked_cycles::no_mshrs            0                       # number of cycles access was blocked
system.cpu0.icache.blocked_cycles::no_targets            0                       # number of cycles access was blocked
system.cpu0.icache.blocked::no_mshrs                0                       # number of cycles access was blocked
system.cpu0.icache.blocked::no_targets              0                       # number of cycles access was blocked
system.cpu0.icache.avg_blocked_cycles::no_mshrs          nan                       # average number of cycles each access was blocked
system.cpu0.icache.avg_blocked_cycles::no_targets          nan                       # average number of cycles each access was blocked
system.cpu0.icache.writebacks::.writebacks           18                       # number of writebacks
system.cpu0.icache.writebacks::total               18                       # number of writebacks
system.cpu0.icache.demand_mshr_misses::.cpu0.inst          449                       # number of demand (read+write) MSHR misses
system.cpu0.icache.demand_mshr_misses::total          449                       # number of demand (read+write) MSHR misses
system.cpu0.icache.overall_mshr_misses::.cpu0.inst          449                       # number of overall MSHR misses
system.cpu0.icache.overall_mshr_misses::total          449                       # number of overall MSHR misses
system.cpu0.icache.demand_mshr_miss_latency::.cpu0.inst     37884411                       # number of demand (read+write) MSHR miss cycles
system.cpu0.icache.demand_mshr_miss_latency::total     37884411                       # number of demand (read+write) MSHR miss cycles
system.cpu0.icache.overall_mshr_miss_latency::.cpu0.inst     37884411                       # number of overall MSHR miss cycles
system.cpu0.icache.overall_mshr_miss_latency::total     37884411                       # number of overall MSHR miss cycles
system.cpu0.icache.demand_mshr_miss_rate::.cpu0.inst     0.000012                       # mshr miss rate for demand accesses
system.cpu0.icache.demand_mshr_miss_rate::total     0.000012                       # mshr miss rate for demand accesses
system.cpu0.icache.overall_mshr_miss_rate::.cpu0.inst     0.000012                       # mshr miss rate for overall accesses
system.cpu0.icache.overall_mshr_miss_rate::total     0.000012                       # mshr miss rate for overall accesses
system.cpu0.icache.demand_avg_mshr_miss_latency::.cpu0.inst 84375.080178                       # average overall mshr miss latency
system.cpu0.icache.demand_avg_mshr_miss_latency::total 84375.080178                       # average overall mshr miss latency
system.cpu0.icache.overall_avg_mshr_miss_latency::.cpu0.inst 84375.080178                       # average overall mshr miss latency
system.cpu0.icache.overall_avg_mshr_miss_latency::total 84375.080178                       # average overall mshr miss latency
system.cpu0.icache.replacements                    18                       # number of replacements
system.cpu0.icache.ReadReq_hits::.cpu0.inst     38901902                       # number of ReadReq hits
system.cpu0.icache.ReadReq_hits::total       38901902                       # number of ReadReq hits
system.cpu0.icache.ReadReq_misses::.cpu0.inst          449                       # number of ReadReq misses
system.cpu0.icache.ReadReq_misses::total          449                       # number of ReadReq misses
system.cpu0.icache.ReadReq_miss_latency::.cpu0.inst     38183445                       # number of ReadReq miss cycles
system.cpu0.icache.ReadReq_miss_latency::total     38183445                       # number of ReadReq miss cycles
system.cpu0.icache.ReadReq_accesses::.cpu0.inst     38902351                       # number of ReadReq accesses(hits+misses)
system.cpu0.icache.ReadReq_accesses::total     38902351                       # number of ReadReq accesses(hits+misses)
system.cpu0.icache.ReadReq_miss_rate::.cpu0.inst     0.000012                       # miss rate for ReadReq accesses
system.cpu0.icache.ReadReq_miss_rate::total     0.000012                       # miss rate for ReadReq accesses
system.cpu0.icache.ReadReq_avg_miss_latency::.cpu0.inst 85041.080178                       # average ReadReq miss latency
system.cpu0.icache.ReadReq_avg_miss_latency::total 85041.080178                       # average ReadReq miss latency
system.cpu0.icache.ReadReq_mshr_misses::.cpu0.inst          449                       # number of ReadReq MSHR misses
system.cpu0.icache.ReadReq_mshr_misses::total          449                       # number of ReadReq MSHR misses
system.cpu0.icache.ReadReq_mshr_miss_latency::.cpu0.inst     37884411                       # number of ReadReq MSHR miss cycles
system.cpu0.icache.ReadReq_mshr_miss_latency::total     37884411                       # number of ReadReq MSHR miss cycles
system.cpu0.icache.ReadReq_mshr_miss_rate::.cpu0.inst     0.000012                       # mshr miss rate for ReadReq accesses
system.cpu0.icache.ReadReq_mshr_miss_rate::total     0.000012                       # mshr miss rate for ReadReq accesses
system.cpu0.icache.ReadReq_avg_mshr_miss_latency::.cpu0.inst 84375.080178                       # average ReadReq mshr miss latency
system.cpu0.icache.ReadReq_avg_mshr_miss_latency::total 84375.080178                       # average ReadReq mshr miss latency
system.cpu0.icache.tags.pwrStateResidencyTicks::UNDEFINED 3008619629073                       # Cumulative time (in ticks) in various power states
system.cpu0.icache.tags.tagsinuse          429.130156                       # Cycle average of tags in use
system.cpu0.icache.tags.total_refs           38902351                       # Total number of references to valid blocks.
system.cpu0.icache.tags.sampled_refs              449                       # Sample count of references to valid blocks.
system.cpu0.icache.tags.avg_refs         86642.207127                       # Average number of references to valid blocks.
system.cpu0.icache.tags.warmup_cycle            83250                       # Cycle when the warmup percentage was hit.
system.cpu0.icache.tags.occ_blocks::.cpu0.inst   429.130156                       # Average occupied blocks per requestor
system.cpu0.icache.tags.occ_percent::.cpu0.inst     0.838145                       # Average percentage of cache occupancy
system.cpu0.icache.tags.occ_percent::total     0.838145                       # Average percentage of cache occupancy
system.cpu0.icache.tags.occ_task_id_blocks::1024          431                       # Occupied blocks per task id
system.cpu0.icache.tags.age_task_id_blocks_1024::4          431                       # Occupied blocks per task id
system.cpu0.icache.tags.occ_task_id_percent::1024     0.841797                       # Percentage of cache occupancy per task id
system.cpu0.icache.tags.tag_accesses        311219257                       # Number of tag accesses
system.cpu0.icache.tags.data_accesses       311219257                       # Number of data accesses
system.cpu0.icache.tags.repl_invalid                0                       # Number of initial replacements
system.cpu0.icache.tags.repl_valid_tag              0                       # Number of local replacements
system.cpu0.icache.tags.repl_valid_data             0                       # Number of global replacements
system.cpu0.dtb.walker.pwrStateResidencyTicks::UNDEFINED 3008619629073                       # Cumulative time (in ticks) in various power states
system.cpu0.interrupts.clk_domain.clock          5328                       # Clock period in ticks
system.cpu0.itb_walker_cache.pwrStateResidencyTicks::UNDEFINED 3008619629073                       # Cumulative time (in ticks) in various power states
system.cpu0.itb_walker_cache.blocked_cycles::no_mshrs            0                       # number of cycles access was blocked
system.cpu0.itb_walker_cache.blocked_cycles::no_targets            0                       # number of cycles access was blocked
system.cpu0.itb_walker_cache.blocked::no_mshrs            0                       # number of cycles access was blocked
system.cpu0.itb_walker_cache.blocked::no_targets            0                       # number of cycles access was blocked
system.cpu0.itb_walker_cache.avg_blocked_cycles::no_mshrs          nan                       # average number of cycles each access was blocked
system.cpu0.itb_walker_cache.avg_blocked_cycles::no_targets          nan                       # average number of cycles each access was blocked
system.cpu0.itb_walker_cache.replacements            0                       # number of replacements
system.cpu0.itb_walker_cache.tags.pwrStateResidencyTicks::UNDEFINED 3008619629073                       # Cumulative time (in ticks) in various power states
system.cpu0.itb_walker_cache.tags.tagsinuse            0                       # Cycle average of tags in use
system.cpu0.itb_walker_cache.tags.total_refs            0                       # Total number of references to valid blocks.
system.cpu0.itb_walker_cache.tags.sampled_refs            0                       # Sample count of references to valid blocks.
system.cpu0.itb_walker_cache.tags.avg_refs          nan                       # Average number of references to valid blocks.
system.cpu0.itb_walker_cache.tags.warmup_cycle            0                       # Cycle when the warmup percentage was hit.
system.cpu0.itb_walker_cache.tags.tag_accesses            0                       # Number of tag accesses
system.cpu0.itb_walker_cache.tags.data_accesses            0                       # Number of data accesses
system.cpu0.itb_walker_cache.tags.repl_invalid            0                       # Number of initial replacements
system.cpu0.itb_walker_cache.tags.repl_valid_tag            0                       # Number of local replacements
system.cpu0.itb_walker_cache.tags.repl_valid_data            0                       # Number of global replacements
system.cpu0.itb.walker.pwrStateResidencyTicks::UNDEFINED 3008619629073                       # Cumulative time (in ticks) in various power states
system.cpu0.dtb_walker_cache.pwrStateResidencyTicks::UNDEFINED 3008619629073                       # Cumulative time (in ticks) in various power states
system.cpu0.dtb_walker_cache.blocked_cycles::no_mshrs            0                       # number of cycles access was blocked
system.cpu0.dtb_walker_cache.blocked_cycles::no_targets            0                       # number of cycles access was blocked
system.cpu0.dtb_walker_cache.blocked::no_mshrs            0                       # number of cycles access was blocked
system.cpu0.dtb_walker_cache.blocked::no_targets            0                       # number of cycles access was blocked
system.cpu0.dtb_walker_cache.avg_blocked_cycles::no_mshrs          nan                       # average number of cycles each access was blocked
system.cpu0.dtb_walker_cache.avg_blocked_cycles::no_targets          nan                       # average number of cycles each access was blocked
system.cpu0.dtb_walker_cache.replacements            0                       # number of replacements
system.cpu0.dtb_walker_cache.tags.pwrStateResidencyTicks::UNDEFINED 3008619629073                       # Cumulative time (in ticks) in various power states
system.cpu0.dtb_walker_cache.tags.tagsinuse            0                       # Cycle average of tags in use
system.cpu0.dtb_walker_cache.tags.total_refs            0                       # Total number of references to valid blocks.
system.cpu0.dtb_walker_cache.tags.sampled_refs            0                       # Sample count of references to valid blocks.
system.cpu0.dtb_walker_cache.tags.avg_refs          nan                       # Average number of references to valid blocks.
system.cpu0.dtb_walker_cache.tags.warmup_cycle            0                       # Cycle when the warmup percentage was hit.
system.cpu0.dtb_walker_cache.tags.tag_accesses            0                       # Number of tag accesses
system.cpu0.dtb_walker_cache.tags.data_accesses            0                       # Number of data accesses
system.cpu0.dtb_walker_cache.tags.repl_invalid            0                       # Number of initial replacements
system.cpu0.dtb_walker_cache.tags.repl_valid_tag            0                       # Number of local replacements
system.cpu0.dtb_walker_cache.tags.repl_valid_data            0                       # Number of global replacements
system.cpu0.dcache.pwrStateResidencyTicks::UNDEFINED 3008619629073                       # Cumulative time (in ticks) in various power states
system.cpu0.dcache.demand_hits::.cpu0.data     16322542                       # number of demand (read+write) hits
system.cpu0.dcache.demand_hits::total        16322542                       # number of demand (read+write) hits
system.cpu0.dcache.overall_hits::.cpu0.data     16322542                       # number of overall hits
system.cpu0.dcache.overall_hits::total       16322542                       # number of overall hits
system.cpu0.dcache.demand_misses::.cpu0.data       347916                       # number of demand (read+write) misses
system.cpu0.dcache.demand_misses::total        347916                       # number of demand (read+write) misses
system.cpu0.dcache.overall_misses::.cpu0.data       347916                       # number of overall misses
system.cpu0.dcache.overall_misses::total       347916                       # number of overall misses
system.cpu0.dcache.demand_miss_latency::.cpu0.data  30842922204                       # number of demand (read+write) miss cycles
system.cpu0.dcache.demand_miss_latency::total  30842922204                       # number of demand (read+write) miss cycles
system.cpu0.dcache.overall_miss_latency::.cpu0.data  30842922204                       # number of overall miss cycles
system.cpu0.dcache.overall_miss_latency::total  30842922204                       # number of overall miss cycles
system.cpu0.dcache.demand_accesses::.cpu0.data     16670458                       # number of demand (read+write) accesses
system.cpu0.dcache.demand_accesses::total     16670458                       # number of demand (read+write) accesses
system.cpu0.dcache.overall_accesses::.cpu0.data     16670458                       # number of overall (read+write) accesses
system.cpu0.dcache.overall_accesses::total     16670458                       # number of overall (read+write) accesses
system.cpu0.dcache.demand_miss_rate::.cpu0.data     0.020870                       # miss rate for demand accesses
system.cpu0.dcache.demand_miss_rate::total     0.020870                       # miss rate for demand accesses
system.cpu0.dcache.overall_miss_rate::.cpu0.data     0.020870                       # miss rate for overall accesses
system.cpu0.dcache.overall_miss_rate::total     0.020870                       # miss rate for overall accesses
system.cpu0.dcache.demand_avg_miss_latency::.cpu0.data 88650.485186                       # average overall miss latency
system.cpu0.dcache.demand_avg_miss_latency::total 88650.485186                       # average overall miss latency
system.cpu0.dcache.overall_avg_miss_latency::.cpu0.data 88650.485186                       # average overall miss latency
system.cpu0.dcache.overall_avg_miss_latency::total 88650.485186                       # average overall miss latency
system.cpu0.dcache.blocked_cycles::no_mshrs            0                       # number of cycles access was blocked
system.cpu0.dcache.blocked_cycles::no_targets            0                       # number of cycles access was blocked
system.cpu0.dcache.blocked::no_mshrs                0                       # number of cycles access was blocked
system.cpu0.dcache.blocked::no_targets              0                       # number of cycles access was blocked
system.cpu0.dcache.avg_blocked_cycles::no_mshrs          nan                       # average number of cycles each access was blocked
system.cpu0.dcache.avg_blocked_cycles::no_targets          nan                       # average number of cycles each access was blocked
system.cpu0.dcache.writebacks::.writebacks          514                       # number of writebacks
system.cpu0.dcache.writebacks::total              514                       # number of writebacks
system.cpu0.dcache.demand_mshr_misses::.cpu0.data       347916                       # number of demand (read+write) MSHR misses
system.cpu0.dcache.demand_mshr_misses::total       347916                       # number of demand (read+write) MSHR misses
system.cpu0.dcache.overall_mshr_misses::.cpu0.data       347916                       # number of overall MSHR misses
system.cpu0.dcache.overall_mshr_misses::total       347916                       # number of overall MSHR misses
system.cpu0.dcache.demand_mshr_miss_latency::.cpu0.data  30611210148                       # number of demand (read+write) MSHR miss cycles
system.cpu0.dcache.demand_mshr_miss_latency::total  30611210148                       # number of demand (read+write) MSHR miss cycles
system.cpu0.dcache.overall_mshr_miss_latency::.cpu0.data  30611210148                       # number of overall MSHR miss cycles
system.cpu0.dcache.overall_mshr_miss_latency::total  30611210148                       # number of overall MSHR miss cycles
system.cpu0.dcache.demand_mshr_miss_rate::.cpu0.data     0.020870                       # mshr miss rate for demand accesses
system.cpu0.dcache.demand_mshr_miss_rate::total     0.020870                       # mshr miss rate for demand accesses
system.cpu0.dcache.overall_mshr_miss_rate::.cpu0.data     0.020870                       # mshr miss rate for overall accesses
system.cpu0.dcache.overall_mshr_miss_rate::total     0.020870                       # mshr miss rate for overall accesses
system.cpu0.dcache.demand_avg_mshr_miss_latency::.cpu0.data 87984.485186                       # average overall mshr miss latency
system.cpu0.dcache.demand_avg_mshr_miss_latency::total 87984.485186                       # average overall mshr miss latency
system.cpu0.dcache.overall_avg_mshr_miss_latency::.cpu0.data 87984.485186                       # average overall mshr miss latency
system.cpu0.dcache.overall_avg_mshr_miss_latency::total 87984.485186                       # average overall mshr miss latency
system.cpu0.dcache.replacements                347908                       # number of replacements
system.cpu0.dcache.ReadReq_hits::.cpu0.data     10765403                       # number of ReadReq hits
system.cpu0.dcache.ReadReq_hits::total       10765403                       # number of ReadReq hits
system.cpu0.dcache.ReadReq_misses::.cpu0.data       347660                       # number of ReadReq misses
system.cpu0.dcache.ReadReq_misses::total       347660                       # number of ReadReq misses
system.cpu0.dcache.ReadReq_miss_latency::.cpu0.data  30830810661                       # number of ReadReq miss cycles
system.cpu0.dcache.ReadReq_miss_latency::total  30830810661                       # number of ReadReq miss cycles
system.cpu0.dcache.ReadReq_accesses::.cpu0.data     11113063                       # number of ReadReq accesses(hits+misses)
system.cpu0.dcache.ReadReq_accesses::total     11113063                       # number of ReadReq accesses(hits+misses)
system.cpu0.dcache.ReadReq_miss_rate::.cpu0.data     0.031284                       # miss rate for ReadReq accesses
system.cpu0.dcache.ReadReq_miss_rate::total     0.031284                       # miss rate for ReadReq accesses
system.cpu0.dcache.ReadReq_avg_miss_latency::.cpu0.data 88680.925792                       # average ReadReq miss latency
system.cpu0.dcache.ReadReq_avg_miss_latency::total 88680.925792                       # average ReadReq miss latency
system.cpu0.dcache.ReadReq_mshr_misses::.cpu0.data       347660                       # number of ReadReq MSHR misses
system.cpu0.dcache.ReadReq_mshr_misses::total       347660                       # number of ReadReq MSHR misses
system.cpu0.dcache.ReadReq_mshr_miss_latency::.cpu0.data  30599269101                       # number of ReadReq MSHR miss cycles
system.cpu0.dcache.ReadReq_mshr_miss_latency::total  30599269101                       # number of ReadReq MSHR miss cycles
system.cpu0.dcache.ReadReq_mshr_miss_rate::.cpu0.data     0.031284                       # mshr miss rate for ReadReq accesses
system.cpu0.dcache.ReadReq_mshr_miss_rate::total     0.031284                       # mshr miss rate for ReadReq accesses
system.cpu0.dcache.ReadReq_avg_mshr_miss_latency::.cpu0.data 88014.925792                       # average ReadReq mshr miss latency
system.cpu0.dcache.ReadReq_avg_mshr_miss_latency::total 88014.925792                       # average ReadReq mshr miss latency
system.cpu0.dcache.WriteReq_hits::.cpu0.data      5557139                       # number of WriteReq hits
system.cpu0.dcache.WriteReq_hits::total       5557139                       # number of WriteReq hits
system.cpu0.dcache.WriteReq_misses::.cpu0.data          256                       # number of WriteReq misses
system.cpu0.dcache.WriteReq_misses::total          256                       # number of WriteReq misses
system.cpu0.dcache.WriteReq_miss_latency::.cpu0.data     12111543                       # number of WriteReq miss cycles
system.cpu0.dcache.WriteReq_miss_latency::total     12111543                       # number of WriteReq miss cycles
system.cpu0.dcache.WriteReq_accesses::.cpu0.data      5557395                       # number of WriteReq accesses(hits+misses)
system.cpu0.dcache.WriteReq_accesses::total      5557395                       # number of WriteReq accesses(hits+misses)
system.cpu0.dcache.WriteReq_miss_rate::.cpu0.data     0.000046                       # miss rate for WriteReq accesses
system.cpu0.dcache.WriteReq_miss_rate::total     0.000046                       # miss rate for WriteReq accesses
system.cpu0.dcache.WriteReq_avg_miss_latency::.cpu0.data 47310.714844                       # average WriteReq miss latency
system.cpu0.dcache.WriteReq_avg_miss_latency::total 47310.714844                       # average WriteReq miss latency
system.cpu0.dcache.WriteReq_mshr_misses::.cpu0.data          256                       # number of WriteReq MSHR misses
system.cpu0.dcache.WriteReq_mshr_misses::total          256                       # number of WriteReq MSHR misses
system.cpu0.dcache.WriteReq_mshr_miss_latency::.cpu0.data     11941047                       # number of WriteReq MSHR miss cycles
system.cpu0.dcache.WriteReq_mshr_miss_latency::total     11941047                       # number of WriteReq MSHR miss cycles
system.cpu0.dcache.WriteReq_mshr_miss_rate::.cpu0.data     0.000046                       # mshr miss rate for WriteReq accesses
system.cpu0.dcache.WriteReq_mshr_miss_rate::total     0.000046                       # mshr miss rate for WriteReq accesses
system.cpu0.dcache.WriteReq_avg_mshr_miss_latency::.cpu0.data 46644.714844                       # average WriteReq mshr miss latency
system.cpu0.dcache.WriteReq_avg_mshr_miss_latency::total 46644.714844                       # average WriteReq mshr miss latency
system.cpu0.dcache.tags.pwrStateResidencyTicks::UNDEFINED 3008619629073                       # Cumulative time (in ticks) in various power states
system.cpu0.dcache.tags.tagsinuse            7.999998                       # Cycle average of tags in use
system.cpu0.dcache.tags.total_refs           16670458                       # Total number of references to valid blocks.
system.cpu0.dcache.tags.sampled_refs           347916                       # Sample count of references to valid blocks.
system.cpu0.dcache.tags.avg_refs            47.915181                       # Average number of references to valid blocks.
system.cpu0.dcache.tags.warmup_cycle           166167                       # Cycle when the warmup percentage was hit.
system.cpu0.dcache.tags.occ_blocks::.cpu0.data     7.999998                       # Average occupied blocks per requestor
system.cpu0.dcache.tags.occ_percent::.cpu0.data     1.000000                       # Average percentage of cache occupancy
system.cpu0.dcache.tags.occ_percent::total     1.000000                       # Average percentage of cache occupancy
system.cpu0.dcache.tags.occ_task_id_blocks::1024            8                       # Occupied blocks per task id
system.cpu0.dcache.tags.age_task_id_blocks_1024::4            8                       # Occupied blocks per task id
system.cpu0.dcache.tags.occ_task_id_percent::1024            1                       # Percentage of cache occupancy per task id
system.cpu0.dcache.tags.tag_accesses        133711580                       # Number of tag accesses
system.cpu0.dcache.tags.data_accesses       133711580                       # Number of data accesses
system.cpu0.dcache.tags.repl_invalid                0                       # Number of initial replacements
system.cpu0.dcache.tags.repl_valid_tag              0                       # Number of local replacements
system.cpu0.dcache.tags.repl_valid_data             0                       # Number of global replacements
system.cpu1.numPwrStateTransitions                  1                       # Number of power state transitions
system.cpu1.pwrStateResidencyTicks::ON   3008619629073                       # Cumulative time (in ticks) in various power states
system.cpu1.icache.pwrStateResidencyTicks::UNDEFINED 3008619629073                       # Cumulative time (in ticks) in various power states
system.cpu1.icache.demand_hits::.cpu1.inst   1278068172                       # number of demand (read+write) hits
system.cpu1.icache.demand_hits::total      1278068172                       # number of demand (read+write) hits
system.cpu1.icache.overall_hits::.cpu1.inst   1278068172                       # number of overall hits
system.cpu1.icache.overall_hits::total     1278068172                       # number of overall hits
system.cpu1.icache.demand_misses::.cpu1.inst          816                       # number of demand (read+write) misses
system.cpu1.icache.demand_misses::total           816                       # number of demand (read+write) misses
system.cpu1.icache.overall_misses::.cpu1.inst          816                       # number of overall misses
system.cpu1.icache.overall_misses::total          816                       # number of overall misses
system.cpu1.icache.demand_miss_latency::.cpu1.inst     68820111                       # number of demand (read+write) miss cycles
system.cpu1.icache.demand_miss_latency::total     68820111                       # number of demand (read+write) miss cycles
system.cpu1.icache.overall_miss_latency::.cpu1.inst     68820111                       # number of overall miss cycles
system.cpu1.icache.overall_miss_latency::total     68820111                       # number of overall miss cycles
system.cpu1.icache.demand_accesses::.cpu1.inst   1278068988                       # number of demand (read+write) accesses
system.cpu1.icache.demand_accesses::total   1278068988                       # number of demand (read+write) accesses
system.cpu1.icache.overall_accesses::.cpu1.inst   1278068988                       # number of overall (read+write) accesses
system.cpu1.icache.overall_accesses::total   1278068988                       # number of overall (read+write) accesses
system.cpu1.icache.demand_miss_rate::.cpu1.inst     0.000001                       # miss rate for demand accesses
system.cpu1.icache.demand_miss_rate::total     0.000001                       # miss rate for demand accesses
system.cpu1.icache.overall_miss_rate::.cpu1.inst     0.000001                       # miss rate for overall accesses
system.cpu1.icache.overall_miss_rate::total     0.000001                       # miss rate for overall accesses
system.cpu1.icache.demand_avg_miss_latency::.cpu1.inst 84338.371324                       # average overall miss latency
system.cpu1.icache.demand_avg_miss_latency::total 84338.371324                       # average overall miss latency
system.cpu1.icache.overall_avg_miss_latency::.cpu1.inst 84338.371324                       # average overall miss latency
system.cpu1.icache.overall_avg_miss_latency::total 84338.371324                       # average overall miss latency
system.cpu1.icache.blocked_cycles::no_mshrs            0                       # number of cycles access was blocked
system.cpu1.icache.blocked_cycles::no_targets            0                       # number of cycles access was blocked
system.cpu1.icache.blocked::no_mshrs                0                       # number of cycles access was blocked
system.cpu1.icache.blocked::no_targets              0                       # number of cycles access was blocked
system.cpu1.icache.avg_blocked_cycles::no_mshrs          nan                       # average number of cycles each access was blocked
system.cpu1.icache.avg_blocked_cycles::no_targets          nan                       # average number of cycles each access was blocked
system.cpu1.icache.writebacks::.writebacks          304                       # number of writebacks
system.cpu1.icache.writebacks::total              304                       # number of writebacks
system.cpu1.icache.demand_mshr_misses::.cpu1.inst          816                       # number of demand (read+write) MSHR misses
system.cpu1.icache.demand_mshr_misses::total          816                       # number of demand (read+write) MSHR misses
system.cpu1.icache.overall_mshr_misses::.cpu1.inst          816                       # number of overall MSHR misses
system.cpu1.icache.overall_mshr_misses::total          816                       # number of overall MSHR misses
system.cpu1.icache.demand_mshr_miss_latency::.cpu1.inst     68276655                       # number of demand (read+write) MSHR miss cycles
system.cpu1.icache.demand_mshr_miss_latency::total     68276655                       # number of demand (read+write) MSHR miss cycles
system.cpu1.icache.overall_mshr_miss_latency::.cpu1.inst     68276655                       # number of overall MSHR miss cycles
system.cpu1.icache.overall_mshr_miss_latency::total     68276655                       # number of overall MSHR miss cycles
system.cpu1.icache.demand_mshr_miss_rate::.cpu1.inst     0.000001                       # mshr miss rate for demand accesses
system.cpu1.icache.demand_mshr_miss_rate::total     0.000001                       # mshr miss rate for demand accesses
system.cpu1.icache.overall_mshr_miss_rate::.cpu1.inst     0.000001                       # mshr miss rate for overall accesses
system.cpu1.icache.overall_mshr_miss_rate::total     0.000001                       # mshr miss rate for overall accesses
system.cpu1.icache.demand_avg_mshr_miss_latency::.cpu1.inst 83672.371324                       # average overall mshr miss latency
system.cpu1.icache.demand_avg_mshr_miss_latency::total 83672.371324                       # average overall mshr miss latency
system.cpu1.icache.overall_avg_mshr_miss_latency::.cpu1.inst 83672.371324                       # average overall mshr miss latency
system.cpu1.icache.overall_avg_mshr_miss_latency::total 83672.371324                       # average overall mshr miss latency
system.cpu1.icache.replacements                   304                       # number of replacements
system.cpu1.icache.ReadReq_hits::.cpu1.inst   1278068172                       # number of ReadReq hits
system.cpu1.icache.ReadReq_hits::total     1278068172                       # number of ReadReq hits
system.cpu1.icache.ReadReq_misses::.cpu1.inst          816                       # number of ReadReq misses
system.cpu1.icache.ReadReq_misses::total          816                       # number of ReadReq misses
system.cpu1.icache.ReadReq_miss_latency::.cpu1.inst     68820111                       # number of ReadReq miss cycles
system.cpu1.icache.ReadReq_miss_latency::total     68820111                       # number of ReadReq miss cycles
system.cpu1.icache.ReadReq_accesses::.cpu1.inst   1278068988                       # number of ReadReq accesses(hits+misses)
system.cpu1.icache.ReadReq_accesses::total   1278068988                       # number of ReadReq accesses(hits+misses)
system.cpu1.icache.ReadReq_miss_rate::.cpu1.inst     0.000001                       # miss rate for ReadReq accesses
system.cpu1.icache.ReadReq_miss_rate::total     0.000001                       # miss rate for ReadReq accesses
system.cpu1.icache.ReadReq_avg_miss_latency::.cpu1.inst 84338.371324                       # average ReadReq miss latency
system.cpu1.icache.ReadReq_avg_miss_latency::total 84338.371324                       # average ReadReq miss latency
system.cpu1.icache.ReadReq_mshr_misses::.cpu1.inst          816                       # number of ReadReq MSHR misses
system.cpu1.icache.ReadReq_mshr_misses::total          816                       # number of ReadReq MSHR misses
system.cpu1.icache.ReadReq_mshr_miss_latency::.cpu1.inst     68276655                       # number of ReadReq MSHR miss cycles
system.cpu1.icache.ReadReq_mshr_miss_latency::total     68276655                       # number of ReadReq MSHR miss cycles
system.cpu1.icache.ReadReq_mshr_miss_rate::.cpu1.inst     0.000001                       # mshr miss rate for ReadReq accesses
system.cpu1.icache.ReadReq_mshr_miss_rate::total     0.000001                       # mshr miss rate for ReadReq accesses
system.cpu1.icache.ReadReq_avg_mshr_miss_latency::.cpu1.inst 83672.371324                       # average ReadReq mshr miss latency
system.cpu1.icache.ReadReq_avg_mshr_miss_latency::total 83672.371324                       # average ReadReq mshr miss latency
system.cpu1.icache.tags.pwrStateResidencyTicks::UNDEFINED 3008619629073                       # Cumulative time (in ticks) in various power states
system.cpu1.icache.tags.tagsinuse          507.779612                       # Cycle average of tags in use
system.cpu1.icache.tags.total_refs         1278068988                       # Total number of references to valid blocks.
system.cpu1.icache.tags.sampled_refs              816                       # Sample count of references to valid blocks.
system.cpu1.icache.tags.avg_refs         1566261.014706                       # Average number of references to valid blocks.
system.cpu1.icache.tags.warmup_cycle            88245                       # Cycle when the warmup percentage was hit.
system.cpu1.icache.tags.occ_blocks::.cpu1.inst   507.779612                       # Average occupied blocks per requestor
system.cpu1.icache.tags.occ_percent::.cpu1.inst     0.991757                       # Average percentage of cache occupancy
system.cpu1.icache.tags.occ_percent::total     0.991757                       # Average percentage of cache occupancy
system.cpu1.icache.tags.occ_task_id_blocks::1024          512                       # Occupied blocks per task id
system.cpu1.icache.tags.age_task_id_blocks_1024::4          512                       # Occupied blocks per task id
system.cpu1.icache.tags.occ_task_id_percent::1024            1                       # Percentage of cache occupancy per task id
system.cpu1.icache.tags.tag_accesses      10224552720                       # Number of tag accesses
system.cpu1.icache.tags.data_accesses     10224552720                       # Number of data accesses
system.cpu1.icache.tags.repl_invalid                0                       # Number of initial replacements
system.cpu1.icache.tags.repl_valid_tag              0                       # Number of local replacements
system.cpu1.icache.tags.repl_valid_data             0                       # Number of global replacements
system.cpu1.dtb.walker.pwrStateResidencyTicks::UNDEFINED 3008619629073                       # Cumulative time (in ticks) in various power states
system.cpu1.interrupts.clk_domain.clock          5328                       # Clock period in ticks
system.cpu1.itb_walker_cache.pwrStateResidencyTicks::UNDEFINED 3008619629073                       # Cumulative time (in ticks) in various power states
system.cpu1.itb_walker_cache.blocked_cycles::no_mshrs            0                       # number of cycles access was blocked
system.cpu1.itb_walker_cache.blocked_cycles::no_targets            0                       # number of cycles access was blocked
system.cpu1.itb_walker_cache.blocked::no_mshrs            0                       # number of cycles access was blocked
system.cpu1.itb_walker_cache.blocked::no_targets            0                       # number of cycles access was blocked
system.cpu1.itb_walker_cache.avg_blocked_cycles::no_mshrs          nan                       # average number of cycles each access was blocked
system.cpu1.itb_walker_cache.avg_blocked_cycles::no_targets          nan                       # average number of cycles each access was blocked
system.cpu1.itb_walker_cache.replacements            0                       # number of replacements
system.cpu1.itb_walker_cache.tags.pwrStateResidencyTicks::UNDEFINED 3008619629073                       # Cumulative time (in ticks) in various power states
system.cpu1.itb_walker_cache.tags.tagsinuse            0                       # Cycle average of tags in use
system.cpu1.itb_walker_cache.tags.total_refs            0                       # Total number of references to valid blocks.
system.cpu1.itb_walker_cache.tags.sampled_refs            0                       # Sample count of references to valid blocks.
system.cpu1.itb_walker_cache.tags.avg_refs          nan                       # Average number of references to valid blocks.
system.cpu1.itb_walker_cache.tags.warmup_cycle            0                       # Cycle when the warmup percentage was hit.
system.cpu1.itb_walker_cache.tags.tag_accesses            0                       # Number of tag accesses
system.cpu1.itb_walker_cache.tags.data_accesses            0                       # Number of data accesses
system.cpu1.itb_walker_cache.tags.repl_invalid            0                       # Number of initial replacements
system.cpu1.itb_walker_cache.tags.repl_valid_tag            0                       # Number of local replacements
system.cpu1.itb_walker_cache.tags.repl_valid_data            0                       # Number of global replacements
system.cpu1.itb.walker.pwrStateResidencyTicks::UNDEFINED 3008619629073                       # Cumulative time (in ticks) in various power states
system.cpu1.dtb_walker_cache.pwrStateResidencyTicks::UNDEFINED 3008619629073                       # Cumulative time (in ticks) in various power states
system.cpu1.dtb_walker_cache.blocked_cycles::no_mshrs            0                       # number of cycles access was blocked
system.cpu1.dtb_walker_cache.blocked_cycles::no_targets            0                       # number of cycles access was blocked
system.cpu1.dtb_walker_cache.blocked::no_mshrs            0                       # number of cycles access was blocked
system.cpu1.dtb_walker_cache.blocked::no_targets            0                       # number of cycles access was blocked
system.cpu1.dtb_walker_cache.avg_blocked_cycles::no_mshrs          nan                       # average number of cycles each access was blocked
system.cpu1.dtb_walker_cache.avg_blocked_cycles::no_targets          nan                       # average number of cycles each access was blocked
system.cpu1.dtb_walker_cache.replacements            0                       # number of replacements
system.cpu1.dtb_walker_cache.tags.pwrStateResidencyTicks::UNDEFINED 3008619629073                       # Cumulative time (in ticks) in various power states
system.cpu1.dtb_walker_cache.tags.tagsinuse            0                       # Cycle average of tags in use
system.cpu1.dtb_walker_cache.tags.total_refs            0                       # Total number of references to valid blocks.
system.cpu1.dtb_walker_cache.tags.sampled_refs            0                       # Sample count of references to valid blocks.
system.cpu1.dtb_walker_cache.tags.avg_refs          nan                       # Average number of references to valid blocks.
system.cpu1.dtb_walker_cache.tags.warmup_cycle            0                       # Cycle when the warmup percentage was hit.
system.cpu1.dtb_walker_cache.tags.tag_accesses            0                       # Number of tag accesses
system.cpu1.dtb_walker_cache.tags.data_accesses            0                       # Number of data accesses
system.cpu1.dtb_walker_cache.tags.repl_invalid            0                       # Number of initial replacements
system.cpu1.dtb_walker_cache.tags.repl_valid_tag            0                       # Number of local replacements
system.cpu1.dtb_walker_cache.tags.repl_valid_data            0                       # Number of global replacements
system.cpu1.dcache.pwrStateResidencyTicks::UNDEFINED 3008619629073                       # Cumulative time (in ticks) in various power states
system.cpu1.dcache.demand_hits::.cpu1.data    292190749                       # number of demand (read+write) hits
system.cpu1.dcache.demand_hits::total       292190749                       # number of demand (read+write) hits
system.cpu1.dcache.overall_hits::.cpu1.data    292190749                       # number of overall hits
system.cpu1.dcache.overall_hits::total      292190749                       # number of overall hits
system.cpu1.dcache.demand_misses::.cpu1.data    123976326                       # number of demand (read+write) misses
system.cpu1.dcache.demand_misses::total     123976326                       # number of demand (read+write) misses
system.cpu1.dcache.overall_misses::.cpu1.data    123976326                       # number of overall misses
system.cpu1.dcache.overall_misses::total    123976326                       # number of overall misses
system.cpu1.dcache.demand_miss_latency::.cpu1.data 1962771555375                       # number of demand (read+write) miss cycles
system.cpu1.dcache.demand_miss_latency::total 1962771555375                       # number of demand (read+write) miss cycles
system.cpu1.dcache.overall_miss_latency::.cpu1.data 1962771555375                       # number of overall miss cycles
system.cpu1.dcache.overall_miss_latency::total 1962771555375                       # number of overall miss cycles
system.cpu1.dcache.demand_accesses::.cpu1.data    416167075                       # number of demand (read+write) accesses
system.cpu1.dcache.demand_accesses::total    416167075                       # number of demand (read+write) accesses
system.cpu1.dcache.overall_accesses::.cpu1.data    416167075                       # number of overall (read+write) accesses
system.cpu1.dcache.overall_accesses::total    416167075                       # number of overall (read+write) accesses
system.cpu1.dcache.demand_miss_rate::.cpu1.data     0.297900                       # miss rate for demand accesses
system.cpu1.dcache.demand_miss_rate::total     0.297900                       # miss rate for demand accesses
system.cpu1.dcache.overall_miss_rate::.cpu1.data     0.297900                       # miss rate for overall accesses
system.cpu1.dcache.overall_miss_rate::total     0.297900                       # miss rate for overall accesses
system.cpu1.dcache.demand_avg_miss_latency::.cpu1.data 15831.825468                       # average overall miss latency
system.cpu1.dcache.demand_avg_miss_latency::total 15831.825468                       # average overall miss latency
system.cpu1.dcache.overall_avg_miss_latency::.cpu1.data 15831.825468                       # average overall miss latency
system.cpu1.dcache.overall_avg_miss_latency::total 15831.825468                       # average overall miss latency
system.cpu1.dcache.blocked_cycles::no_mshrs            0                       # number of cycles access was blocked
system.cpu1.dcache.blocked_cycles::no_targets            0                       # number of cycles access was blocked
system.cpu1.dcache.blocked::no_mshrs                0                       # number of cycles access was blocked
system.cpu1.dcache.blocked::no_targets              0                       # number of cycles access was blocked
system.cpu1.dcache.avg_blocked_cycles::no_mshrs          nan                       # average number of cycles each access was blocked
system.cpu1.dcache.avg_blocked_cycles::no_targets          nan                       # average number of cycles each access was blocked
system.cpu1.dcache.writebacks::.writebacks     97972744                       # number of writebacks
system.cpu1.dcache.writebacks::total         97972744                       # number of writebacks
system.cpu1.dcache.demand_mshr_misses::.cpu1.data    123976326                       # number of demand (read+write) MSHR misses
system.cpu1.dcache.demand_mshr_misses::total    123976326                       # number of demand (read+write) MSHR misses
system.cpu1.dcache.overall_mshr_misses::.cpu1.data    123976326                       # number of overall MSHR misses
system.cpu1.dcache.overall_mshr_misses::total    123976326                       # number of overall MSHR misses
system.cpu1.dcache.demand_mshr_miss_latency::.cpu1.data 1880203322259                       # number of demand (read+write) MSHR miss cycles
system.cpu1.dcache.demand_mshr_miss_latency::total 1880203322259                       # number of demand (read+write) MSHR miss cycles
system.cpu1.dcache.overall_mshr_miss_latency::.cpu1.data 1880203322259                       # number of overall MSHR miss cycles
system.cpu1.dcache.overall_mshr_miss_latency::total 1880203322259                       # number of overall MSHR miss cycles
system.cpu1.dcache.demand_mshr_miss_rate::.cpu1.data     0.297900                       # mshr miss rate for demand accesses
system.cpu1.dcache.demand_mshr_miss_rate::total     0.297900                       # mshr miss rate for demand accesses
system.cpu1.dcache.overall_mshr_miss_rate::.cpu1.data     0.297900                       # mshr miss rate for overall accesses
system.cpu1.dcache.overall_mshr_miss_rate::total     0.297900                       # mshr miss rate for overall accesses
system.cpu1.dcache.demand_avg_mshr_miss_latency::.cpu1.data 15165.825468                       # average overall mshr miss latency
system.cpu1.dcache.demand_avg_mshr_miss_latency::total 15165.825468                       # average overall mshr miss latency
system.cpu1.dcache.overall_avg_mshr_miss_latency::.cpu1.data 15165.825468                       # average overall mshr miss latency
system.cpu1.dcache.overall_avg_mshr_miss_latency::total 15165.825468                       # average overall mshr miss latency
system.cpu1.dcache.replacements             123976318                       # number of replacements
system.cpu1.dcache.ReadReq_hits::.cpu1.data    190074531                       # number of ReadReq hits
system.cpu1.dcache.ReadReq_hits::total      190074531                       # number of ReadReq hits
system.cpu1.dcache.ReadReq_misses::.cpu1.data    111315830                       # number of ReadReq misses
system.cpu1.dcache.ReadReq_misses::total    111315830                       # number of ReadReq misses
system.cpu1.dcache.ReadReq_miss_latency::.cpu1.data 1794397345461                       # number of ReadReq miss cycles
system.cpu1.dcache.ReadReq_miss_latency::total 1794397345461                       # number of ReadReq miss cycles
system.cpu1.dcache.ReadReq_accesses::.cpu1.data    301390361                       # number of ReadReq accesses(hits+misses)
system.cpu1.dcache.ReadReq_accesses::total    301390361                       # number of ReadReq accesses(hits+misses)
system.cpu1.dcache.ReadReq_miss_rate::.cpu1.data     0.369341                       # miss rate for ReadReq accesses
system.cpu1.dcache.ReadReq_miss_rate::total     0.369341                       # miss rate for ReadReq accesses
system.cpu1.dcache.ReadReq_avg_miss_latency::.cpu1.data 16119.875722                       # average ReadReq miss latency
system.cpu1.dcache.ReadReq_avg_miss_latency::total 16119.875722                       # average ReadReq miss latency
system.cpu1.dcache.ReadReq_mshr_misses::.cpu1.data    111315830                       # number of ReadReq MSHR misses
system.cpu1.dcache.ReadReq_mshr_misses::total    111315830                       # number of ReadReq MSHR misses
system.cpu1.dcache.ReadReq_mshr_miss_latency::.cpu1.data 1720261002681                       # number of ReadReq MSHR miss cycles
system.cpu1.dcache.ReadReq_mshr_miss_latency::total 1720261002681                       # number of ReadReq MSHR miss cycles
system.cpu1.dcache.ReadReq_mshr_miss_rate::.cpu1.data     0.369341                       # mshr miss rate for ReadReq accesses
system.cpu1.dcache.ReadReq_mshr_miss_rate::total     0.369341                       # mshr miss rate for ReadReq accesses
system.cpu1.dcache.ReadReq_avg_mshr_miss_latency::.cpu1.data 15453.875722                       # average ReadReq mshr miss latency
system.cpu1.dcache.ReadReq_avg_mshr_miss_latency::total 15453.875722                       # average ReadReq mshr miss latency
system.cpu1.dcache.WriteReq_hits::.cpu1.data    102116218                       # number of WriteReq hits
system.cpu1.dcache.WriteReq_hits::total     102116218                       # number of WriteReq hits
system.cpu1.dcache.WriteReq_misses::.cpu1.data     12660496                       # number of WriteReq misses
system.cpu1.dcache.WriteReq_misses::total     12660496                       # number of WriteReq misses
[...]
system.mem_ctrls.wrQLenPdf::118                     0                       # What write queue length does an incoming req see
system.mem_ctrls.wrQLenPdf::119                     0                       # What write queue length does an incoming req see
system.mem_ctrls.wrQLenPdf::120                     0                       # What write queue length does an incoming req see
system.mem_ctrls.wrQLenPdf::121                     0                       # What write queue length does an incoming req see
system.mem_ctrls.wrQLenPdf::122                     0                       # What write queue length does an incoming req see
system.mem_ctrls.wrQLenPdf::123                     0                       # What write queue length does an incoming req see
system.mem_ctrls.wrQLenPdf::124                     0                       # What write queue length does an incoming req see
system.mem_ctrls.wrQLenPdf::125                     0                       # What write queue length does an incoming req see
system.mem_ctrls.wrQLenPdf::126                     0                       # What write queue length does an incoming req see
system.mem_ctrls.wrQLenPdf::127                     0                       # What write queue length does an incoming req see
system.mem_ctrls.bytesPerActivate::samples      7456690                       # Bytes accessed per row activation
system.mem_ctrls.bytesPerActivate::mean            64                       # Bytes accessed per row activation
system.mem_ctrls.bytesPerActivate::gmean    64.000000                       # Bytes accessed per row activation
system.mem_ctrls.bytesPerActivate::64-71      7456690    100.00%    100.00% # Bytes accessed per row activation
system.mem_ctrls.bytesPerActivate::total      7456690                       # Bytes accessed per row activation
system.mem_ctrls.rdPerTurnAround::samples        18457                       # Reads before turning the bus around for writes
system.mem_ctrls.rdPerTurnAround::mean     386.034458                       # Reads before turning the bus around for writes
system.mem_ctrls.rdPerTurnAround::gmean     36.659229                       # Reads before turning the bus around for writes
system.mem_ctrls.rdPerTurnAround::stdev   2505.287175                       # Reads before turning the bus around for writes
system.mem_ctrls.rdPerTurnAround::0-4095        18050     97.79%     97.79% # Reads before turning the bus around for writes
system.mem_ctrls.rdPerTurnAround::4096-8191            9      0.05%     97.84% # Reads before turning the bus around for writes
system.mem_ctrls.rdPerTurnAround::8192-12287           87      0.47%     98.32% # Reads before turning the bus around for writes
system.mem_ctrls.rdPerTurnAround::12288-16383          176      0.95%     99.27% # Reads before turning the bus around for writes
system.mem_ctrls.rdPerTurnAround::16384-20479           98      0.53%     99.80% # Reads before turning the bus around for writes
system.mem_ctrls.rdPerTurnAround::20480-24575           34      0.18%     99.98% # Reads before turning the bus around for writes
system.mem_ctrls.rdPerTurnAround::24576-28671            2      0.01%     99.99% # Reads before turning the bus around for writes
system.mem_ctrls.rdPerTurnAround::143360-147455            1      0.01%    100.00% # Reads before turning the bus around for writes
system.mem_ctrls.rdPerTurnAround::total         18457                       # Reads before turning the bus around for writes
system.mem_ctrls.wrPerTurnAround::samples        18457                       # Writes before turning the bus around for reads
system.mem_ctrls.wrPerTurnAround::mean      17.403370                       # Writes before turning the bus around for reads
system.mem_ctrls.wrPerTurnAround::gmean     17.379316                       # Writes before turning the bus around for reads
system.mem_ctrls.wrPerTurnAround::stdev      0.900799                       # Writes before turning the bus around for reads
system.mem_ctrls.wrPerTurnAround::16             5240     28.39%     28.39% # Writes before turning the bus around for reads
system.mem_ctrls.wrPerTurnAround::17              559      3.03%     31.42% # Writes before turning the bus around for reads
system.mem_ctrls.wrPerTurnAround::18            12631     68.43%     99.85% # Writes before turning the bus around for reads
system.mem_ctrls.wrPerTurnAround::19               27      0.15%    100.00% # Writes before turning the bus around for reads
system.mem_ctrls.wrPerTurnAround::total         18457                       # Writes before turning the bus around for reads
system.mem_ctrls.bytesReadDRAM              456670464                       # Total number of bytes read from DRAM
system.mem_ctrls.bytesReadWrQ                  215744                       # Total number of bytes read from write queue
system.mem_ctrls.bytesWritten                20557696                       # Total number of bytes written to DRAM
system.mem_ctrls.bytesReadSys               456886208                       # Total read bytes from the system interface side
system.mem_ctrls.bytesWrittenSys             20561472                       # Total written bytes from the system interface side
system.mem_ctrls.avgRdBW                       151.79                       # Average DRAM read bandwidth in MiByte/s
system.mem_ctrls.avgWrBW                         6.83                       # Average achieved write bandwidth in MiByte/s
system.mem_ctrls.avgRdBWSys                    151.86                       # Average system read bandwidth in MiByte/s
system.mem_ctrls.avgWrBWSys                      6.83                       # Average system write bandwidth in MiByte/s
system.mem_ctrls.peakBW                      19207.00                       # Theoretical peak bandwidth in MiByte/s
system.mem_ctrls.busUtil                         0.83                       # Data bus utilization in percentage
system.mem_ctrls.busUtilRead                     0.79                       # Data bus utilization in percentage for reads
system.mem_ctrls.busUtilWrite                    0.04                       # Data bus utilization in percentage for writes
system.mem_ctrls.totGap                  3008196787671                       # Total gap between requests
system.mem_ctrls.avgGap                     403237.05                       # Average gap between requests
system.mem_ctrls.masterReadBytes::.cpu0.inst        28736                       # Per-master bytes read from memory
system.mem_ctrls.masterReadBytes::.cpu0.data     22238464                       # Per-master bytes read from memory
system.mem_ctrls.masterReadBytes::.cpu1.inst        51776                       # Per-master bytes read from memory
system.mem_ctrls.masterReadBytes::.cpu1.data    434351488                       # Per-master bytes read from memory
system.mem_ctrls.masterWriteBytes::.writebacks     20557696                       # Per-master bytes write to memory
system.mem_ctrls.masterReadRate::.cpu0.inst 9551.223997316665                       # Per-master bytes read from memory rate (Bytes/sec)
system.mem_ctrls.masterReadRate::.cpu0.data 7391583.763232974336                       # Per-master bytes read from memory rate (Bytes/sec)
system.mem_ctrls.masterReadRate::.cpu1.inst 17209.220966211986                       # Per-master bytes read from memory rate (Bytes/sec)
system.mem_ctrls.masterReadRate::.cpu1.data 144369026.846318274736                       # Per-master bytes read from memory rate (Bytes/sec)
system.mem_ctrls.masterWriteRate::.writebacks 6832932.884352060966                       # Per-master bytes write to memory rate (Bytes/sec)
system.mem_ctrls.masterReadAccesses::.cpu0.inst          449                       # Per-master read serviced memory accesses
system.mem_ctrls.masterReadAccesses::.cpu0.data       347476                       # Per-master read serviced memory accesses
system.mem_ctrls.masterReadAccesses::.cpu1.inst          809                       # Per-master read serviced memory accesses
system.mem_ctrls.masterReadAccesses::.cpu1.data      6790113                       # Per-master read serviced memory accesses
system.mem_ctrls.masterWriteAccesses::.writebacks       321273                       # Per-master write serviced memory accesses
system.mem_ctrls.masterReadTotalLat::.cpu0.inst     16312121                       # Per-master read total memory access latency
system.mem_ctrls.masterReadTotalLat::.cpu0.data  13987424153                       # Per-master read total memory access latency
system.mem_ctrls.masterReadTotalLat::.cpu1.inst     29327886                       # Per-master read total memory access latency
system.mem_ctrls.masterReadTotalLat::.cpu1.data 253911564329                       # Per-master read total memory access latency
system.mem_ctrls.masterWriteTotalLat::.writebacks 165596414452126                       # Per-master write total memory access latency
system.mem_ctrls.masterReadAvgLat::.cpu0.inst     36329.89                       # Per-master read average memory access latency
system.mem_ctrls.masterReadAvgLat::.cpu0.data     40254.36                       # Per-master read average memory access latency
system.mem_ctrls.masterReadAvgLat::.cpu1.inst     36252.02                       # Per-master read average memory access latency
system.mem_ctrls.masterReadAvgLat::.cpu1.data     37394.31                       # Per-master read average memory access latency
system.mem_ctrls.masterWriteAvgLat::.writebacks 515438317.11                       # Per-master write average memory access latency
system.mem_ctrls.pageHitRate                     0.00                       # Row buffer hit rate, read and write combined
system.mem_ctrls.rank1.actEnergy         5817121180.415728                       # Energy for activate commands per rank (pJ)
system.mem_ctrls.rank1.preEnergy         10269456237.730354                       # Energy for precharge commands per rank (pJ)
system.mem_ctrls.rank1.readEnergy        9791132979.620024                       # Energy for read commands per rank (pJ)
system.mem_ctrls.rank1.writeEnergy       379314973.296022                       # Energy for write commands per rank (pJ)
system.mem_ctrls.rank1.refreshEnergy     261164777330.894775                       # Energy for refresh commands per rank (pJ)
system.mem_ctrls.rank1.actBackEnergy     116209999809.349319                       # Energy for active background per rank (pJ)
system.mem_ctrls.rank1.preBackEnergy     901787254384.466675                       # Energy for precharge background per rank (pJ)
system.mem_ctrls.rank1.actPowerDownEnergy            0                       # Energy for active power-down per rank (pJ)
system.mem_ctrls.rank1.prePowerDownEnergy            0                       # Energy for precharge power-down per rank (pJ)
system.mem_ctrls.rank1.selfRefreshEnergy            0                       # Energy for self refresh per rank (pJ)
system.mem_ctrls.rank1.totalEnergy       1305419056903.367432                       # Total energy per rank (pJ)
system.mem_ctrls.rank1.averagePower        433.893020                       # Core power per rank (mW)
system.mem_ctrls.rank1.totalIdleTime                0                       # Total Idle time Per DRAM Rank
system.mem_ctrls.rank1.memoryStateTime::IDLE 2707020084831                       # Time in different power states
system.mem_ctrls.rank1.memoryStateTime::REF 135247350000                       # Time in different power states
system.mem_ctrls.rank1.memoryStateTime::SREF            0                       # Time in different power states
system.mem_ctrls.rank1.memoryStateTime::PRE_PDN            0                       # Time in different power states
system.mem_ctrls.rank1.memoryStateTime::ACT 166352194242                       # Time in different power states
system.mem_ctrls.rank1.memoryStateTime::ACT_PDN            0                       # Time in different power states
system.mem_ctrls.rank0.actEnergy         5810662245.023750                       # Energy for activate commands per rank (pJ)
system.mem_ctrls.rank0.preEnergy         10258053732.557280                       # Energy for precharge commands per rank (pJ)
system.mem_ctrls.rank0.readEnergy        9780781265.962320                       # Energy for read commands per rank (pJ)
system.mem_ctrls.rank0.writeEnergy       378446840.688020                       # Energy for write commands per rank (pJ)
system.mem_ctrls.rank0.refreshEnergy     261164777330.894775                       # Energy for refresh commands per rank (pJ)
system.mem_ctrls.rank0.actBackEnergy     116154508596.713226                       # Energy for active background per rank (pJ)
system.mem_ctrls.rank0.preBackEnergy     901825563038.870117                       # Energy for precharge background per rank (pJ)
system.mem_ctrls.rank0.actPowerDownEnergy            0                       # Energy for active power-down per rank (pJ)
system.mem_ctrls.rank0.prePowerDownEnergy            0                       # Energy for precharge power-down per rank (pJ)
system.mem_ctrls.rank0.selfRefreshEnergy            0                       # Energy for self refresh per rank (pJ)
system.mem_ctrls.rank0.totalEnergy       1305372793058.334717                       # Total energy per rank (pJ)
system.mem_ctrls.rank0.averagePower        433.877643                       # Core power per rank (mW)
system.mem_ctrls.rank0.totalIdleTime                0                       # Total Idle time Per DRAM Rank
system.mem_ctrls.rank0.memoryStateTime::IDLE 2707193104537                       # Time in different power states
system.mem_ctrls.rank0.memoryStateTime::REF 135247350000                       # Time in different power states
system.mem_ctrls.rank0.memoryStateTime::SREF            0                       # Time in different power states
system.mem_ctrls.rank0.memoryStateTime::PRE_PDN            0                       # Time in different power states
system.mem_ctrls.rank0.memoryStateTime::ACT 166179174536                       # Time in different power states
system.mem_ctrls.rank0.memoryStateTime::ACT_PDN            0                       # Time in different power states
system.cpu_clk_domain.clock                       333                       # Clock period in ticks
system.tol2bus.pwrStateResidencyTicks::UNDEFINED 3008619629073                       # Cumulative time (in ticks) in various power states
system.tol2bus.trans_dist::ReadResp         111664755                       # Transaction distribution
system.tol2bus.trans_dist::WritebackDirty     98294531                       # Transaction distribution
system.tol2bus.trans_dist::WritebackClean          322                       # Transaction distribution
system.tol2bus.trans_dist::CleanEvict        32906581                       # Transaction distribution
system.tol2bus.trans_dist::ReadExReq         12660752                       # Transaction distribution
system.tol2bus.trans_dist::ReadExResp        12660752                       # Transaction distribution
system.tol2bus.trans_dist::ReadCleanReq          1265                       # Transaction distribution
system.tol2bus.trans_dist::ReadSharedReq    111663490                       # Transaction distribution
system.tol2bus.pkt_count_system.cpu0.icache.mem_side::system.l2.cpu_side          916                       # Packet count per connected master and slave (bytes)
system.tol2bus.pkt_count_system.cpu0.dcache.mem_side::system.l2.cpu_side      1043740                       # Packet count per connected master and slave (bytes)
system.tol2bus.pkt_count_system.cpu1.icache.mem_side::system.l2.cpu_side         1936                       # Packet count per connected master and slave (bytes)
system.tol2bus.pkt_count_system.cpu1.dcache.mem_side::system.l2.cpu_side    371928970                       # Packet count per connected master and slave (bytes)
system.tol2bus.pkt_count::total             372975562                       # Packet count per connected master and slave (bytes)
system.tol2bus.pkt_size_system.cpu0.icache.mem_side::system.l2.cpu_side        29888                       # Cumulative packet size per connected master and slave (bytes)
system.tol2bus.pkt_size_system.cpu0.dcache.mem_side::system.l2.cpu_side     22299520                       # Cumulative packet size per connected master and slave (bytes)
system.tol2bus.pkt_size_system.cpu1.icache.mem_side::system.l2.cpu_side        71680                       # Cumulative packet size per connected master and slave (bytes)
system.tol2bus.pkt_size_system.cpu1.dcache.mem_side::system.l2.cpu_side  14204740480                       # Cumulative packet size per connected master and slave (bytes)
system.tol2bus.pkt_size::total            14227141568                       # Cumulative packet size per connected master and slave (bytes)
system.tol2bus.snoops                         6876886                       # Total snoops (count)
system.tol2bus.snoopTraffic                  20561472                       # Total snoop traffic (bytes)
system.tol2bus.snoop_fanout::samples        131202393                       # Request fanout histogram
system.tol2bus.snoop_fanout::mean            0.000008                       # Request fanout histogram
system.tol2bus.snoop_fanout::stdev           0.002795                       # Request fanout histogram
system.tol2bus.snoop_fanout::underflows             0      0.00%      0.00% # Request fanout histogram
system.tol2bus.snoop_fanout::0              131201368    100.00%    100.00% # Request fanout histogram
system.tol2bus.snoop_fanout::1                   1025      0.00%    100.00% # Request fanout histogram
system.tol2bus.snoop_fanout::2                      0      0.00%    100.00% # Request fanout histogram
system.tol2bus.snoop_fanout::3                      0      0.00%    100.00% # Request fanout histogram
system.tol2bus.snoop_fanout::4                      0      0.00%    100.00% # Request fanout histogram
system.tol2bus.snoop_fanout::5                      0      0.00%    100.00% # Request fanout histogram
system.tol2bus.snoop_fanout::6                      0      0.00%    100.00% # Request fanout histogram
system.tol2bus.snoop_fanout::7                      0      0.00%    100.00% # Request fanout histogram
system.tol2bus.snoop_fanout::8                      0      0.00%    100.00% # Request fanout histogram
system.tol2bus.snoop_fanout::overflows              0      0.00%    100.00% # Request fanout histogram
system.tol2bus.snoop_fanout::min_value              0                       # Request fanout histogram
system.tol2bus.snoop_fanout::max_value              1                       # Request fanout histogram
system.tol2bus.snoop_fanout::total          131202393                       # Request fanout histogram
system.tol2bus.reqLayer0.occupancy       148050872595                       # Layer occupancy (ticks)
system.tol2bus.reqLayer0.utilization              4.9                       # Layer utilization (%)
system.tol2bus.respLayer5.occupancy      123852349674                       # Layer occupancy (ticks)
system.tol2bus.respLayer5.utilization             4.1                       # Layer utilization (%)
system.tol2bus.respLayer4.occupancy            815184                       # Layer occupancy (ticks)
system.tol2bus.respLayer4.utilization             0.0                       # Layer utilization (%)
system.tol2bus.respLayer1.occupancy         348796816                       # Layer occupancy (ticks)
system.tol2bus.respLayer1.utilization             0.0                       # Layer utilization (%)
system.tol2bus.respLayer0.occupancy            449547                       # Layer occupancy (ticks)
system.tol2bus.respLayer0.utilization             0.0                       # Layer utilization (%)

---------- End Simulation Statistics   ----------
