
---------- Begin Simulation Statistics ----------
final_tick                                67658878062                       # Number of ticks from beginning of simulation (restored from checkpoints and never reset)
host_inst_rate                                 738077                       # Simulator instruction rate (inst/s)
host_mem_usage                               10754336                       # Number of bytes of host memory used
host_op_rate                                  1397443                       # Simulator op (including micro ops) rate (op/s)
host_seconds                                    53.93                       # Real time elapsed on the host
host_tick_rate                             1254665960                       # Simulator tick rate (ticks/s)
sim_freq                                 1000000000000                       # Frequency of simulated ticks
sim_insts                                    39801314                       # Number of instructions simulated
sim_ops                                      75358235                       # Number of ops (including micro ops) simulated
sim_seconds                                  0.067659                       # Number of seconds simulated
sim_ticks                                 67658878062                       # Number of ticks simulated
system.cpu0.Branches                          2780018                       # Number of branches fetched
system.cpu0.committedInsts                   27788099                       # Number of instructions committed
system.cpu0.committedOps                     52797721                       # Number of ops (including micro ops) committed
system.cpu0.dtb.rdAccesses                   11113063                       # TLB accesses on read requests
system.cpu0.dtb.rdMisses                         5446                       # TLB misses on read requests
system.cpu0.dtb.wrAccesses                    5557395                       # TLB accesses on write requests
system.cpu0.dtb.wrMisses                            8                       # TLB misses on write requests
system.cpu0.idle_fraction                    0.000000                       # Percentage of idle cycles
system.cpu0.itb.rdAccesses                          0                       # TLB accesses on read requests
system.cpu0.itb.rdMisses                            0                       # TLB misses on read requests
system.cpu0.itb.wrAccesses                   38902351                       # TLB accesses on write requests
system.cpu0.itb.wrMisses                           46                       # TLB misses on write requests
system.cpu0.not_idle_fraction                1.000000                       # Percentage of non-idle cycles
system.cpu0.numCycles                       203179814                       # number of cpu cycles simulated
system.cpu0.numWorkItemsCompleted                   0                       # number of work items this cpu completed
system.cpu0.numWorkItemsStarted                     0                       # number of work items this cpu started
system.cpu0.num_busy_cycles              203179813.996997                       # Number of busy cycles
system.cpu0.num_cc_register_reads            13899961                       # number of times the CC registers were read
system.cpu0.num_cc_register_writes           16672913                       # number of times the CC registers were written
system.cpu0.num_conditional_control_insts      2779471                       # number of instructions that are conditional controls
system.cpu0.num_fp_alu_accesses                  1214                       # Number of float alu accesses
system.cpu0.num_fp_insts                         1214                       # number of float instructions
system.cpu0.num_fp_register_reads                1401                       # number of times the floating registers were read
system.cpu0.num_fp_register_writes                679                       # number of times the floating registers were written
system.cpu0.num_func_calls                        384                       # number of times a function call or return occured
system.cpu0.num_idle_cycles                  0.003003                       # Number of idle cycles
system.cpu0.num_int_alu_accesses             52796880                       # Number of integer alu accesses
system.cpu0.num_int_insts                    52796880                       # number of integer instructions
system.cpu0.num_int_register_reads          105592520                       # number of times the integer registers were read
system.cpu0.num_int_register_writes          44459432                       # number of times the integer registers were written
system.cpu0.num_load_insts                   11113060                       # Number of load instructions
system.cpu0.num_mem_refs                     16670454                       # number of memory refs
system.cpu0.num_store_insts                   5557394                       # Number of store instructions
system.cpu0.num_vec_alu_accesses                    0                       # Number of vector alu accesses
system.cpu0.num_vec_insts                           0                       # number of vector instructions
system.cpu0.num_vec_register_reads                  0                       # number of times the vector registers were read
system.cpu0.num_vec_register_writes                 0                       # number of times the vector registers were written
system.cpu0.op_class::No_OpClass                  336      0.00%      0.00% # Class of executed instruction
system.cpu0.op_class::IntAlu                 36126368     68.42%     68.42% # Class of executed instruction
system.cpu0.op_class::IntMult                       5      0.00%     68.42% # Class of executed instruction
system.cpu0.op_class::IntDiv                       28      0.00%     68.42% # Class of executed instruction
system.cpu0.op_class::FloatAdd                    144      0.00%     68.43% # Class of executed instruction
system.cpu0.op_class::FloatCmp                      0      0.00%     68.43% # Class of executed instruction
system.cpu0.op_class::FloatCvt                      0      0.00%     68.43% # Class of executed instruction
system.cpu0.op_class::FloatMult                     0      0.00%     68.43% # Class of executed instruction
system.cpu0.op_class::FloatMultAcc                  0      0.00%     68.43% # Class of executed instruction
system.cpu0.op_class::FloatDiv                      0      0.00%     68.43% # Class of executed instruction
system.cpu0.op_class::FloatMisc                     0      0.00%     68.43% # Class of executed instruction
system.cpu0.op_class::FloatSqrt                     0      0.00%     68.43% # Class of executed instruction
system.cpu0.op_class::SimdAdd                       0      0.00%     68.43% # Class of executed instruction
system.cpu0.op_class::SimdAddAcc                    0      0.00%     68.43% # Class of executed instruction
system.cpu0.op_class::SimdAlu                     104      0.00%     68.43% # Class of executed instruction
system.cpu0.op_class::SimdCmp                       0      0.00%     68.43% # Class of executed instruction
system.cpu0.op_class::SimdCvt                      54      0.00%     68.43% # Class of executed instruction
system.cpu0.op_class::SimdMisc                    228      0.00%     68.43% # Class of executed instruction
system.cpu0.op_class::SimdMult                      0      0.00%     68.43% # Class of executed instruction
system.cpu0.op_class::SimdMultAcc                   0      0.00%     68.43% # Class of executed instruction
system.cpu0.op_class::SimdShift                     0      0.00%     68.43% # Class of executed instruction
system.cpu0.op_class::SimdShiftAcc                  0      0.00%     68.43% # Class of executed instruction
system.cpu0.op_class::SimdDiv                       0      0.00%     68.43% # Class of executed instruction
system.cpu0.op_class::SimdSqrt                      0      0.00%     68.43% # Class of executed instruction
system.cpu0.op_class::SimdFloatAdd                  0      0.00%     68.43% # Class of executed instruction
system.cpu0.op_class::SimdFloatAlu                  0      0.00%     68.43% # Class of executed instruction
system.cpu0.op_class::SimdFloatCmp                  0      0.00%     68.43% # Class of executed instruction
system.cpu0.op_class::SimdFloatCvt                  0      0.00%     68.43% # Class of executed instruction
system.cpu0.op_class::SimdFloatDiv                  0      0.00%     68.43% # Class of executed instruction
system.cpu0.op_class::SimdFloatMisc                 0      0.00%     68.43% # Class of executed instruction
system.cpu0.op_class::SimdFloatMult                 0      0.00%     68.43% # Class of executed instruction
system.cpu0.op_class::SimdFloatMultAcc              0      0.00%     68.43% # Class of executed instruction
system.cpu0.op_class::SimdFloatSqrt                 0      0.00%     68.43% # Class of executed instruction
system.cpu0.op_class::SimdReduceAdd                 0      0.00%     68.43% # Class of executed instruction
system.cpu0.op_class::SimdReduceAlu                 0      0.00%     68.43% # Class of executed instruction
system.cpu0.op_class::SimdReduceCmp                 0      0.00%     68.43% # Class of executed instruction
system.cpu0.op_class::SimdFloatReduceAdd            0      0.00%     68.43% # Class of executed instruction
system.cpu0.op_class::SimdFloatReduceCmp            0      0.00%     68.43% # Class of executed instruction
system.cpu0.op_class::SimdAes                       0      0.00%     68.43% # Class of executed instruction
system.cpu0.op_class::SimdAesMix                    0      0.00%     68.43% # Class of executed instruction
system.cpu0.op_class::SimdSha1Hash                  0      0.00%     68.43% # Class of executed instruction
system.cpu0.op_class::SimdSha1Hash2                 0      0.00%     68.43% # Class of executed instruction
system.cpu0.op_class::SimdSha256Hash                0      0.00%     68.43% # Class of executed instruction
system.cpu0.op_class::SimdSha256Hash2               0      0.00%     68.43% # Class of executed instruction
system.cpu0.op_class::SimdShaSigma2                 0      0.00%     68.43% # Class of executed instruction
system.cpu0.op_class::SimdShaSigma3                 0      0.00%     68.43% # Class of executed instruction
system.cpu0.op_class::SimdPredAlu                   0      0.00%     68.43% # Class of executed instruction
system.cpu0.op_class::MemRead                11113000     21.05%     89.47% # Class of executed instruction
system.cpu0.op_class::MemWrite                5556913     10.52%    100.00% # Class of executed instruction
system.cpu0.op_class::FloatMemRead                 60      0.00%    100.00% # Class of executed instruction
system.cpu0.op_class::FloatMemWrite               481      0.00%    100.00% # Class of executed instruction
system.cpu0.op_class::IprAccess                     0      0.00%    100.00% # Class of executed instruction
system.cpu0.op_class::InstPrefetch                  0      0.00%    100.00% # Class of executed instruction
system.cpu0.op_class::total                  52797721                       # Class of executed instruction
system.cpu0.workload.numSyscalls                   12                       # Number of system calls
system.cpu1.Branches                          2601986                       # Number of branches fetched
system.cpu1.committedInsts                   12013215                       # Number of instructions committed
system.cpu1.committedOps                     22560514                       # Number of ops (including micro ops) committed
system.cpu1.dtb.rdAccesses                    2190078                       # TLB accesses on read requests
system.cpu1.dtb.rdMisses                          191                       # TLB misses on read requests
system.cpu1.dtb.wrAccesses                    1325117                       # TLB accesses on write requests
system.cpu1.dtb.wrMisses                          101                       # TLB misses on write requests
system.cpu1.idle_fraction                    0.746962                       # Percentage of idle cycles
system.cpu1.itb.rdAccesses                          0                       # TLB accesses on read requests
system.cpu1.itb.rdMisses                            0                       # TLB misses on read requests
system.cpu1.itb.wrAccesses                   14836957                       # TLB accesses on write requests
system.cpu1.itb.wrMisses                          195                       # TLB misses on write requests
system.cpu1.not_idle_fraction                0.253038                       # Percentage of non-idle cycles
system.cpu1.numCycles                        51412294                       # number of cpu cycles simulated
system.cpu1.numWorkItemsCompleted                   0                       # number of work items this cpu completed
system.cpu1.numWorkItemsStarted                     0                       # number of work items this cpu started
system.cpu1.num_busy_cycles              13009284.349002                       # Number of busy cycles
system.cpu1.num_cc_register_reads            10614960                       # number of times the CC registers were read
system.cpu1.num_cc_register_writes            6971677                       # number of times the CC registers were written
system.cpu1.num_conditional_control_insts      1520276                       # number of instructions that are conditional controls
system.cpu1.num_fp_alu_accesses                560194                       # Number of float alu accesses
system.cpu1.num_fp_insts                       560194                       # number of float instructions
system.cpu1.num_fp_register_reads              769378                       # number of times the floating registers were read
system.cpu1.num_fp_register_writes             424062                       # number of times the floating registers were written
system.cpu1.num_func_calls                     662438                       # number of times a function call or return occured
system.cpu1.num_idle_cycles              38403009.650998                       # Number of idle cycles
system.cpu1.num_int_alu_accesses             22159675                       # Number of integer alu accesses
system.cpu1.num_int_insts                    22159675                       # number of integer instructions
system.cpu1.num_int_register_reads           43025607                       # number of times the integer registers were read
system.cpu1.num_int_register_writes          18106898                       # number of times the integer registers were written
system.cpu1.num_load_insts                    2180830                       # Number of load instructions
system.cpu1.num_mem_refs                      3505745                       # number of memory refs
system.cpu1.num_store_insts                   1324915                       # Number of store instructions
system.cpu1.num_vec_alu_accesses                    0                       # Number of vector alu accesses
system.cpu1.num_vec_insts                           0                       # number of vector instructions
system.cpu1.num_vec_register_reads                  0                       # number of times the vector registers were read
system.cpu1.num_vec_register_writes                 0                       # number of times the vector registers were written
system.cpu1.op_class::No_OpClass               113023      0.50%      0.50% # Class of executed instruction
system.cpu1.op_class::IntAlu                 18695391     82.87%     83.37% # Class of executed instruction
system.cpu1.op_class::IntMult                   17031      0.08%     83.44% # Class of executed instruction
system.cpu1.op_class::IntDiv                       98      0.00%     83.44% # Class of executed instruction
system.cpu1.op_class::FloatAdd                  20392      0.09%     83.54% # Class of executed instruction
system.cpu1.op_class::FloatCmp                      0      0.00%     83.54% # Class of executed instruction
system.cpu1.op_class::FloatCvt                      0      0.00%     83.54% # Class of executed instruction
system.cpu1.op_class::FloatMult                     0      0.00%     83.54% # Class of executed instruction
system.cpu1.op_class::FloatMultAcc                  0      0.00%     83.54% # Class of executed instruction
system.cpu1.op_class::FloatDiv                      0      0.00%     83.54% # Class of executed instruction
system.cpu1.op_class::FloatMisc                     0      0.00%     83.54% # Class of executed instruction
system.cpu1.op_class::FloatSqrt                     0      0.00%     83.54% # Class of executed instruction
system.cpu1.op_class::SimdAdd                    4470      0.02%     83.55% # Class of executed instruction
system.cpu1.op_class::SimdAddAcc                    0      0.00%     83.55% # Class of executed instruction
system.cpu1.op_class::SimdAlu                   54516      0.24%     83.80% # Class of executed instruction
system.cpu1.op_class::SimdCmp                     982      0.00%     83.80% # Class of executed instruction
system.cpu1.op_class::SimdCvt                    9420      0.04%     83.84% # Class of executed instruction
system.cpu1.op_class::SimdMisc                  38508      0.17%     84.01% # Class of executed instruction
system.cpu1.op_class::SimdMult                      0      0.00%     84.01% # Class of executed instruction
system.cpu1.op_class::SimdMultAcc                   0      0.00%     84.01% # Class of executed instruction
system.cpu1.op_class::SimdShift                     0      0.00%     84.01% # Class of executed instruction
system.cpu1.op_class::SimdShiftAcc                  0      0.00%     84.01% # Class of executed instruction
system.cpu1.op_class::SimdDiv                       0      0.00%     84.01% # Class of executed instruction
system.cpu1.op_class::SimdSqrt                      0      0.00%     84.01% # Class of executed instruction
system.cpu1.op_class::SimdFloatAdd              27958      0.12%     84.14% # Class of executed instruction
system.cpu1.op_class::SimdFloatAlu                  0      0.00%     84.14% # Class of executed instruction
system.cpu1.op_class::SimdFloatCmp                  0      0.00%     84.14% # Class of executed instruction
system.cpu1.op_class::SimdFloatCvt              22404      0.10%     84.24% # Class of executed instruction
system.cpu1.op_class::SimdFloatDiv               3059      0.01%     84.25% # Class of executed instruction
system.cpu1.op_class::SimdFloatMisc                 0      0.00%     84.25% # Class of executed instruction
system.cpu1.op_class::SimdFloatMult             45459      0.20%     84.45% # Class of executed instruction
system.cpu1.op_class::SimdFloatMultAcc              0      0.00%     84.45% # Class of executed instruction
system.cpu1.op_class::SimdFloatSqrt              2058      0.01%     84.46% # Class of executed instruction
system.cpu1.op_class::SimdReduceAdd                 0      0.00%     84.46% # Class of executed instruction
system.cpu1.op_class::SimdReduceAlu                 0      0.00%     84.46% # Class of executed instruction
system.cpu1.op_class::SimdReduceCmp                 0      0.00%     84.46% # Class of executed instruction
system.cpu1.op_class::SimdFloatReduceAdd            0      0.00%     84.46% # Class of executed instruction
system.cpu1.op_class::SimdFloatReduceCmp            0      0.00%     84.46% # Class of executed instruction
system.cpu1.op_class::SimdAes                       0      0.00%     84.46% # Class of executed instruction
system.cpu1.op_class::SimdAesMix                    0      0.00%     84.46% # Class of executed instruction
system.cpu1.op_class::SimdSha1Hash                  0      0.00%     84.46% # Class of executed instruction
system.cpu1.op_class::SimdSha1Hash2                 0      0.00%     84.46% # Class of executed instruction
system.cpu1.op_class::SimdSha256Hash                0      0.00%     84.46% # Class of executed instruction
system.cpu1.op_class::SimdSha256Hash2               0      0.00%     84.46% # Class of executed instruction
system.cpu1.op_class::SimdShaSigma2                 0      0.00%     84.46% # Class of executed instruction
system.cpu1.op_class::SimdShaSigma3                 0      0.00%     84.46% # Class of executed instruction
system.cpu1.op_class::SimdPredAlu                   0      0.00%     84.46% # Class of executed instruction
system.cpu1.op_class::MemRead                 2052486      9.10%     93.56% # Class of executed instruction
system.cpu1.op_class::MemWrite                1209955      5.36%     98.92% # Class of executed instruction
system.cpu1.op_class::FloatMemRead             128344      0.57%     99.49% # Class of executed instruction
system.cpu1.op_class::FloatMemWrite            114960      0.51%    100.00% # Class of executed instruction
system.cpu1.op_class::IprAccess                     0      0.00%    100.00% # Class of executed instruction
system.cpu1.op_class::InstPrefetch                  0      0.00%    100.00% # Class of executed instruction
system.cpu1.op_class::total                  22560514                       # Class of executed instruction
system.cpu1.workload.numSyscalls                   26                       # Number of system calls
system.membus.snoop_filter.hit_multi_requests            0                       # Number of requests hitting in the snoop filter with multiple (>1) holders of the requested data.
system.membus.snoop_filter.hit_multi_snoops            0                       # Number of snoops hitting in the snoop filter with multiple (>1) holders of the requested data.
system.membus.snoop_filter.hit_single_requests        96149                       # Number of requests hitting in the snoop filter with a single holder of the requested data.
system.membus.snoop_filter.hit_single_snoops            0                       # Number of snoops hitting in the snoop filter with a single holder of the requested data.
system.membus.snoop_filter.tot_requests        453937                       # Total number of requests made to the snoop filter.
system.membus.snoop_filter.tot_snoops               0                       # Total number of snoops made to the snoop filter.
system.tol2bus.snoop_filter.hit_multi_requests            0                       # Number of requests hitting in the snoop filter with multiple (>1) holders of the requested data.
system.tol2bus.snoop_filter.hit_multi_snoops            0                       # Number of snoops hitting in the snoop filter with multiple (>1) holders of the requested data.
system.tol2bus.snoop_filter.hit_single_requests       743201                       # Number of requests hitting in the snoop filter with a single holder of the requested data.
system.tol2bus.snoop_filter.hit_single_snoops          491                       # Number of snoops hitting in the snoop filter with a single holder of the requested data.
system.tol2bus.snoop_filter.tot_requests      1487361                       # Total number of requests made to the snoop filter.
system.tol2bus.snoop_filter.tot_snoops            491                       # Total number of snoops made to the snoop filter.
system.membus.pwrStateResidencyTicks::UNDEFINED  67658878062                       # Cumulative time (in ticks) in various power states
system.membus.trans_dist::ReadResp             353657                       # Transaction distribution
system.membus.trans_dist::WritebackDirty         1208                       # Transaction distribution
system.membus.trans_dist::CleanEvict            94941                       # Transaction distribution
system.membus.trans_dist::ReadExReq              4131                       # Transaction distribution
system.membus.trans_dist::ReadExResp             4131                       # Transaction distribution
system.membus.trans_dist::ReadSharedReq        353657                       # Transaction distribution
system.membus.pkt_count_system.l2.mem_side::system.mem_ctrls.port       811725                       # Packet count per connected master and slave (bytes)
system.membus.pkt_count_system.l2.mem_side::total       811725                       # Packet count per connected master and slave (bytes)
system.membus.pkt_count::total                 811725                       # Packet count per connected master and slave (bytes)
system.membus.pkt_size_system.l2.mem_side::system.mem_ctrls.port     22975744                       # Cumulative packet size per connected master and slave (bytes)
system.membus.pkt_size_system.l2.mem_side::total     22975744                       # Cumulative packet size per connected master and slave (bytes)
system.membus.pkt_size::total                22975744                       # Cumulative packet size per connected master and slave (bytes)
system.membus.snoops                                0                       # Total snoops (count)
system.membus.snoopTraffic                          0                       # Total snoop traffic (bytes)
system.membus.snoop_fanout::samples            357788                       # Request fanout histogram
system.membus.snoop_fanout::mean                    0                       # Request fanout histogram
system.membus.snoop_fanout::stdev                   0                       # Request fanout histogram
system.membus.snoop_fanout::underflows              0      0.00%      0.00% # Request fanout histogram
system.membus.snoop_fanout::0                  357788    100.00%    100.00% # Request fanout histogram
system.membus.snoop_fanout::1                       0      0.00%    100.00% # Request fanout histogram
system.membus.snoop_fanout::overflows               0      0.00%    100.00% # Request fanout histogram
system.membus.snoop_fanout::min_value               0                       # Request fanout histogram
system.membus.snoop_fanout::max_value               0                       # Request fanout histogram
system.membus.snoop_fanout::total              357788                       # Request fanout histogram
system.membus.reqLayer4.occupancy           643873144                       # Layer occupancy (ticks)
system.membus.reqLayer4.utilization               1.0                       # Layer utilization (%)
system.membus.respLayer1.occupancy         1914563917                       # Layer occupancy (ticks)
system.membus.respLayer1.utilization              2.8                       # Layer utilization (%)
system.voltage_domain.voltage                       1                       # Voltage in Volts
system.clk_domain.clock                          1000                       # Clock period in ticks
system.cpu0.numPwrStateTransitions                  1                       # Number of power state transitions
system.cpu0.pwrStateResidencyTicks::ON    67658878062                       # Cumulative time (in ticks) in various power states
system.cpu0.icache.pwrStateResidencyTicks::UNDEFINED  67658878062                       # Cumulative time (in ticks) in various power states
system.cpu0.icache.demand_hits::.cpu0.inst     38901902                       # number of demand (read+write) hits
system.cpu0.icache.demand_hits::total        38901902                       # number of demand (read+write) hits
system.cpu0.icache.overall_hits::.cpu0.inst     38901902                       # number of overall hits
system.cpu0.icache.overall_hits::total       38901902                       # number of overall hits
system.cpu0.icache.demand_misses::.cpu0.inst          449                       # number of demand (read+write) misses
system.cpu0.icache.demand_misses::total           449                       # number of demand (read+write) misses
system.cpu0.icache.overall_misses::.cpu0.inst          449                       # number of overall misses
system.cpu0.icache.overall_misses::total          449                       # number of overall misses
system.cpu0.icache.demand_miss_latency::.cpu0.inst     37565730                       # number of demand (read+write) miss cycles
system.cpu0.icache.demand_miss_latency::total     37565730                       # number of demand (read+write) miss cycles
system.cpu0.icache.overall_miss_latency::.cpu0.inst     37565730                       # number of overall miss cycles
system.cpu0.icache.overall_miss_latency::total     37565730                       # number of overall miss cycles
system.cpu0.icache.demand_accesses::.cpu0.inst     38902351                       # number of demand (read+write) accesses
system.cpu0.icache.demand_accesses::total     38902351                       # number of demand (read+write) accesses
system.cpu0.icache.overall_accesses::.cpu0.inst     38902351                       # number of overall (read+write) accesses
system.cpu0.icache.overall_accesses::total     38902351                       # number of overall (read+write) accesses
system.cpu0.icache.demand_miss_rate::.cpu0.inst     0.000012                       # miss rate for demand accesses
system.cpu0.icache.demand_miss_rate::total     0.000012                       # miss rate for demand accesses
system.cpu0.icache.overall_miss_rate::.cpu0.inst     0.000012                       # miss rate for overall accesses
system.cpu0.icache.overall_miss_rate::total     0.000012                       # miss rate for overall accesses
system.cpu0.icache.demand_avg_miss_latency::.cpu0.inst 83665.322940                       # average overall miss latency
system.cpu0.icache.demand_avg_miss_latency::total 83665.322940                       # average overall miss latency
system.cpu0.icache.overall_avg_miss_latency::.cpu0.inst 83665.322940                       # average overall miss latency
system.cpu0.icache.overall_avg_miss_latency::total 83665.322940                       # average overall miss latency
system.cpu0.icache.blocked_cycles::no_mshrs            0                       # number of cycles access was blocked
system.cpu0.icache.blocked_cycles::no_targets            0                       # number of cycles access was blocked
system.cpu0.icache.blocked::no_mshrs                0                       # number of cycles access was blocked
system.cpu0.icache.blocked::no_targets              0                       # number of cycles access was blocked
system.cpu0.icache.avg_blocked_cycles::no_mshrs          nan                       # average number of cycles each access was blocked
system.cpu0.icache.avg_blocked_cycles::no_targets          nan                       # average number of cycles each access was blocked
system.cpu0.icache.writebacks::.writebacks           18                       # number of writebacks
system.cpu0.icache.writebacks::total               18                       # number of writebacks
system.cpu0.icache.demand_mshr_misses::.cpu0.inst          449                       # number of demand (read+write) MSHR misses
system.cpu0.icache.demand_mshr_misses::total          449                       # number of demand (read+write) MSHR misses
system.cpu0.icache.overall_mshr_misses::.cpu0.inst          449                       # number of overall MSHR misses
system.cpu0.icache.overall_mshr_misses::total          449                       # number of overall MSHR misses
system.cpu0.icache.demand_mshr_miss_latency::.cpu0.inst     37266696                       # number of demand (read+write) MSHR miss cycles
system.cpu0.icache.demand_mshr_miss_latency::total     37266696                       # number of demand (read+write) MSHR miss cycles
system.cpu0.icache.overall_mshr_miss_latency::.cpu0.inst     37266696                       # number of overall MSHR miss cycles
system.cpu0.icache.overall_mshr_miss_latency::total     37266696                       # number of overall MSHR miss cycles
system.cpu0.icache.demand_mshr_miss_rate::.cpu0.inst     0.000012                       # mshr miss rate for demand accesses
system.cpu0.icache.demand_mshr_miss_rate::total     0.000012                       # mshr miss rate for demand accesses
system.cpu0.icache.overall_mshr_miss_rate::.cpu0.inst     0.000012                       # mshr miss rate for overall accesses
system.cpu0.icache.overall_mshr_miss_rate::total     0.000012                       # mshr miss rate for overall accesses
system.cpu0.icache.demand_avg_mshr_miss_latency::.cpu0.inst 82999.322940                       # average overall mshr miss latency
system.cpu0.icache.demand_avg_mshr_miss_latency::total 82999.322940                       # average overall mshr miss latency
system.cpu0.icache.overall_avg_mshr_miss_latency::.cpu0.inst 82999.322940                       # average overall mshr miss latency
system.cpu0.icache.overall_avg_mshr_miss_latency::total 82999.322940                       # average overall mshr miss latency
system.cpu0.icache.replacements                    18                       # number of replacements
system.cpu0.icache.ReadReq_hits::.cpu0.inst     38901902                       # number of ReadReq hits
system.cpu0.icache.ReadReq_hits::total       38901902                       # number of ReadReq hits
system.cpu0.icache.ReadReq_misses::.cpu0.inst          449                       # number of ReadReq misses
system.cpu0.icache.ReadReq_misses::total          449                       # number of ReadReq misses
system.cpu0.icache.ReadReq_miss_latency::.cpu0.inst     37565730                       # number of ReadReq miss cycles
system.cpu0.icache.ReadReq_miss_latency::total     37565730                       # number of ReadReq miss cycles
system.cpu0.icache.ReadReq_accesses::.cpu0.inst     38902351                       # number of ReadReq accesses(hits+misses)
system.cpu0.icache.ReadReq_accesses::total     38902351                       # number of ReadReq accesses(hits+misses)
system.cpu0.icache.ReadReq_miss_rate::.cpu0.inst     0.000012                       # miss rate for ReadReq accesses
system.cpu0.icache.ReadReq_miss_rate::total     0.000012                       # miss rate for ReadReq accesses
system.cpu0.icache.ReadReq_avg_miss_latency::.cpu0.inst 83665.322940                       # average ReadReq miss latency
system.cpu0.icache.ReadReq_avg_miss_latency::total 83665.322940                       # average ReadReq miss latency
system.cpu0.icache.ReadReq_mshr_misses::.cpu0.inst          449                       # number of ReadReq MSHR misses
system.cpu0.icache.ReadReq_mshr_misses::total          449                       # number of ReadReq MSHR misses
system.cpu0.icache.ReadReq_mshr_miss_latency::.cpu0.inst     37266696                       # number of ReadReq MSHR miss cycles
system.cpu0.icache.ReadReq_mshr_miss_latency::total     37266696                       # number of ReadReq MSHR miss cycles
system.cpu0.icache.ReadReq_mshr_miss_rate::.cpu0.inst     0.000012                       # mshr miss rate for ReadReq accesses
system.cpu0.icache.ReadReq_mshr_miss_rate::total     0.000012                       # mshr miss rate for ReadReq accesses
system.cpu0.icache.ReadReq_avg_mshr_miss_latency::.cpu0.inst 82999.322940                       # average ReadReq mshr miss latency
system.cpu0.icache.ReadReq_avg_mshr_miss_latency::total 82999.322940                       # average ReadReq mshr miss latency
system.cpu0.icache.tags.pwrStateResidencyTicks::UNDEFINED  67658878062                       # Cumulative time (in ticks) in various power states
system.cpu0.icache.tags.tagsinuse          347.854243                       # Cycle average of tags in use
system.cpu0.icache.tags.total_refs           38902351                       # Total number of references to valid blocks.
system.cpu0.icache.tags.sampled_refs              449                       # Sample count of references to valid blocks.
system.cpu0.icache.tags.avg_refs         86642.207127                       # Average number of references to valid blocks.
system.cpu0.icache.tags.warmup_cycle            83250                       # Cycle when the warmup percentage was hit.
system.cpu0.icache.tags.occ_blocks::.cpu0.inst   347.854243                       # Average occupied blocks per requestor
system.cpu0.icache.tags.occ_percent::.cpu0.inst     0.679403                       # Average percentage of cache occupancy
system.cpu0.icache.tags.occ_percent::total     0.679403                       # Average percentage of cache occupancy
system.cpu0.icache.tags.occ_task_id_blocks::1024          431                       # Occupied blocks per task id
system.cpu0.icache.tags.age_task_id_blocks_1024::0           65                       # Occupied blocks per task id
system.cpu0.icache.tags.age_task_id_blocks_1024::1           31                       # Occupied blocks per task id
system.cpu0.icache.tags.age_task_id_blocks_1024::4          335                       # Occupied blocks per task id
system.cpu0.icache.tags.occ_task_id_percent::1024     0.841797                       # Percentage of cache occupancy per task id
system.cpu0.icache.tags.tag_accesses        311219257                       # Number of tag accesses
system.cpu0.icache.tags.data_accesses       311219257                       # Number of data accesses
system.cpu0.icache.tags.repl_invalid                0                       # Number of initial replacements
system.cpu0.icache.tags.repl_valid_tag              0                       # Number of local replacements
system.cpu0.icache.tags.repl_valid_data             0                       # Number of global replacements
system.cpu0.dtb.walker.pwrStateResidencyTicks::UNDEFINED  67658878062                       # Cumulative time (in ticks) in various power states
system.cpu0.interrupts.clk_domain.clock          5328                       # Clock period in ticks
system.cpu0.itb_walker_cache.pwrStateResidencyTicks::UNDEFINED  67658878062                       # Cumulative time (in ticks) in various power states
system.cpu0.itb_walker_cache.blocked_cycles::no_mshrs            0                       # number of cycles access was blocked
system.cpu0.itb_walker_cache.blocked_cycles::no_targets            0                       # number of cycles access was blocked
system.cpu0.itb_walker_cache.blocked::no_mshrs            0                       # number of cycles access was blocked
system.cpu0.itb_walker_cache.blocked::no_targets            0                       # number of cycles access was blocked
system.cpu0.itb_walker_cache.avg_blocked_cycles::no_mshrs          nan                       # average number of cycles each access was blocked
system.cpu0.itb_walker_cache.avg_blocked_cycles::no_targets          nan                       # average number of cycles each access was blocked
system.cpu0.itb_walker_cache.replacements            0                       # number of replacements
system.cpu0.itb_walker_cache.tags.pwrStateResidencyTicks::UNDEFINED  67658878062                       # Cumulative time (in ticks) in various power states
system.cpu0.itb_walker_cache.tags.tagsinuse            0                       # Cycle average of tags in use
system.cpu0.itb_walker_cache.tags.total_refs            0                       # Total number of references to valid blocks.
system.cpu0.itb_walker_cache.tags.sampled_refs            0                       # Sample count of references to valid blocks.
system.cpu0.itb_walker_cache.tags.avg_refs          nan                       # Average number of references to valid blocks.
system.cpu0.itb_walker_cache.tags.warmup_cycle            0                       # Cycle when the warmup percentage was hit.
system.cpu0.itb_walker_cache.tags.tag_accesses            0                       # Number of tag accesses
system.cpu0.itb_walker_cache.tags.data_accesses            0                       # Number of data accesses
system.cpu0.itb_walker_cache.tags.repl_invalid            0                       # Number of initial replacements
system.cpu0.itb_walker_cache.tags.repl_valid_tag            0                       # Number of local replacements
system.cpu0.itb_walker_cache.tags.repl_valid_data            0                       # Number of global replacements
system.cpu0.itb.walker.pwrStateResidencyTicks::UNDEFINED  67658878062                       # Cumulative time (in ticks) in various power states
system.cpu0.dtb_walker_cache.pwrStateResidencyTicks::UNDEFINED  67658878062                       # Cumulative time (in ticks) in various power states
system.cpu0.dtb_walker_cache.blocked_cycles::no_mshrs            0                       # number of cycles access was blocked
system.cpu0.dtb_walker_cache.blocked_cycles::no_targets            0                       # number of cycles access was blocked
system.cpu0.dtb_walker_cache.blocked::no_mshrs            0                       # number of cycles access was blocked
system.cpu0.dtb_walker_cache.blocked::no_targets            0                       # number of cycles access was blocked
system.cpu0.dtb_walker_cache.avg_blocked_cycles::no_mshrs          nan                       # average number of cycles each access was blocked
system.cpu0.dtb_walker_cache.avg_blocked_cycles::no_targets          nan                       # average number of cycles each access was blocked
system.cpu0.dtb_walker_cache.replacements            0                       # number of replacements
system.cpu0.dtb_walker_cache.tags.pwrStateResidencyTicks::UNDEFINED  67658878062                       # Cumulative time (in ticks) in various power states
system.cpu0.dtb_walker_cache.tags.tagsinuse            0                       # Cycle average of tags in use
system.cpu0.dtb_walker_cache.tags.total_refs            0                       # Total number of references to valid blocks.
system.cpu0.dtb_walker_cache.tags.sampled_refs            0                       # Sample count of references to valid blocks.
system.cpu0.dtb_walker_cache.tags.avg_refs          nan                       # Average number of references to valid blocks.
system.cpu0.dtb_walker_cache.tags.warmup_cycle            0                       # Cycle when the warmup percentage was hit.
system.cpu0.dtb_walker_cache.tags.tag_accesses            0                       # Number of tag accesses
system.cpu0.dtb_walker_cache.tags.data_accesses            0                       # Number of data accesses
system.cpu0.dtb_walker_cache.tags.repl_invalid            0                       # Number of initial replacements
system.cpu0.dtb_walker_cache.tags.repl_valid_tag            0                       # Number of local replacements
system.cpu0.dtb_walker_cache.tags.repl_valid_data            0                       # Number of global replacements
system.cpu0.dcache.pwrStateResidencyTicks::UNDEFINED  67658878062                       # Cumulative time (in ticks) in various power states
system.cpu0.dcache.demand_hits::.cpu0.data     16322542                       # number of demand (read+write) hits
system.cpu0.dcache.demand_hits::total        16322542                       # number of demand (read+write) hits
system.cpu0.dcache.overall_hits::.cpu0.data     16322542                       # number of overall hits
system.cpu0.dcache.overall_hits::total       16322542                       # number of overall hits
system.cpu0.dcache.demand_misses::.cpu0.data       347916                       # number of demand (read+write) misses
system.cpu0.dcache.demand_misses::total        347916                       # number of demand (read+write) misses
system.cpu0.dcache.overall_misses::.cpu0.data       347916                       # number of overall misses
system.cpu0.dcache.overall_misses::total       347916                       # number of overall misses
system.cpu0.dcache.demand_miss_latency::.cpu0.data  30841855938                       # number of demand (read+write) miss cycles
system.cpu0.dcache.demand_miss_latency::total  30841855938                       # number of demand (read+write) miss cycles
system.cpu0.dcache.overall_miss_latency::.cpu0.data  30841855938                       # number of overall miss cycles
system.cpu0.dcache.overall_miss_latency::total  30841855938                       # number of overall miss cycles
system.cpu0.dcache.demand_accesses::.cpu0.data     16670458                       # number of demand (read+write) accesses
system.cpu0.dcache.demand_accesses::total     16670458                       # number of demand (read+write) accesses
system.cpu0.dcache.overall_accesses::.cpu0.data     16670458                       # number of overall (read+write) accesses
system.cpu0.dcache.overall_accesses::total     16670458                       # number of overall (read+write) accesses
system.cpu0.dcache.demand_miss_rate::.cpu0.data     0.020870                       # miss rate for demand accesses
system.cpu0.dcache.demand_miss_rate::total     0.020870                       # miss rate for demand accesses
system.cpu0.dcache.overall_miss_rate::.cpu0.data     0.020870                       # miss rate for overall accesses
system.cpu0.dcache.overall_miss_rate::total     0.020870                       # miss rate for overall accesses
system.cpu0.dcache.demand_avg_miss_latency::.cpu0.data 88647.420464                       # average overall miss latency
system.cpu0.dcache.demand_avg_miss_latency::total 88647.420464                       # average overall miss latency
system.cpu0.dcache.overall_avg_miss_latency::.cpu0.data 88647.420464                       # average overall miss latency
system.cpu0.dcache.overall_avg_miss_latency::total 88647.420464                       # average overall miss latency
system.cpu0.dcache.blocked_cycles::no_mshrs            0                       # number of cycles access was blocked
system.cpu0.dcache.blocked_cycles::no_targets            0                       # number of cycles access was blocked
system.cpu0.dcache.blocked::no_mshrs                0                       # number of cycles access was blocked
system.cpu0.dcache.blocked::no_targets              0                       # number of cycles access was blocked
system.cpu0.dcache.avg_blocked_cycles::no_mshrs          nan                       # average number of cycles each access was blocked
system.cpu0.dcache.avg_blocked_cycles::no_targets          nan                       # average number of cycles each access was blocked
system.cpu0.dcache.writebacks::.writebacks          535                       # number of writebacks
system.cpu0.dcache.writebacks::total              535                       # number of writebacks
system.cpu0.dcache.demand_mshr_misses::.cpu0.data       347916                       # number of demand (read+write) MSHR misses
system.cpu0.dcache.demand_mshr_misses::total       347916                       # number of demand (read+write) MSHR misses
system.cpu0.dcache.overall_mshr_misses::.cpu0.data       347916                       # number of overall MSHR misses
system.cpu0.dcache.overall_mshr_misses::total       347916                       # number of overall MSHR misses
system.cpu0.dcache.demand_mshr_miss_latency::.cpu0.data  30610143882                       # number of demand (read+write) MSHR miss cycles
system.cpu0.dcache.demand_mshr_miss_latency::total  30610143882                       # number of demand (read+write) MSHR miss cycles
system.cpu0.dcache.overall_mshr_miss_latency::.cpu0.data  30610143882                       # number of overall MSHR miss cycles
system.cpu0.dcache.overall_mshr_miss_latency::total  30610143882                       # number of overall MSHR miss cycles
system.cpu0.dcache.demand_mshr_miss_rate::.cpu0.data     0.020870                       # mshr miss rate for demand accesses
system.cpu0.dcache.demand_mshr_miss_rate::total     0.020870                       # mshr miss rate for demand accesses
system.cpu0.dcache.overall_mshr_miss_rate::.cpu0.data     0.020870                       # mshr miss rate for overall accesses
system.cpu0.dcache.overall_mshr_miss_rate::total     0.020870                       # mshr miss rate for overall accesses
system.cpu0.dcache.demand_avg_mshr_miss_latency::.cpu0.data 87981.420464                       # average overall mshr miss latency
system.cpu0.dcache.demand_avg_mshr_miss_latency::total 87981.420464                       # average overall mshr miss latency
system.cpu0.dcache.overall_avg_mshr_miss_latency::.cpu0.data 87981.420464                       # average overall mshr miss latency
system.cpu0.dcache.overall_avg_mshr_miss_latency::total 87981.420464                       # average overall mshr miss latency
system.cpu0.dcache.replacements                347908                       # number of replacements
system.cpu0.dcache.ReadReq_hits::.cpu0.data     10765403                       # number of ReadReq hits
system.cpu0.dcache.ReadReq_hits::total       10765403                       # number of ReadReq hits
system.cpu0.dcache.ReadReq_misses::.cpu0.data       347660                       # number of ReadReq misses
system.cpu0.dcache.ReadReq_misses::total       347660                       # number of ReadReq misses
system.cpu0.dcache.ReadReq_miss_latency::.cpu0.data  30830072733                       # number of ReadReq miss cycles
system.cpu0.dcache.ReadReq_miss_latency::total  30830072733                       # number of ReadReq miss cycles
system.cpu0.dcache.ReadReq_accesses::.cpu0.data     11113063                       # number of ReadReq accesses(hits+misses)
system.cpu0.dcache.ReadReq_accesses::total     11113063                       # number of ReadReq accesses(hits+misses)
system.cpu0.dcache.ReadReq_miss_rate::.cpu0.data     0.031284                       # miss rate for ReadReq accesses
system.cpu0.dcache.ReadReq_miss_rate::total     0.031284                       # miss rate for ReadReq accesses
system.cpu0.dcache.ReadReq_avg_miss_latency::.cpu0.data 88678.803236                       # average ReadReq miss latency
system.cpu0.dcache.ReadReq_avg_miss_latency::total 88678.803236                       # average ReadReq miss latency
system.cpu0.dcache.ReadReq_mshr_misses::.cpu0.data       347660                       # number of ReadReq MSHR misses
system.cpu0.dcache.ReadReq_mshr_misses::total       347660                       # number of ReadReq MSHR misses
system.cpu0.dcache.ReadReq_mshr_miss_latency::.cpu0.data  30598531173                       # number of ReadReq MSHR miss cycles
system.cpu0.dcache.ReadReq_mshr_miss_latency::total  30598531173                       # number of ReadReq MSHR miss cycles
system.cpu0.dcache.ReadReq_mshr_miss_rate::.cpu0.data     0.031284                       # mshr miss rate for ReadReq accesses
system.cpu0.dcache.ReadReq_mshr_miss_rate::total     0.031284                       # mshr miss rate for ReadReq accesses
system.cpu0.dcache.ReadReq_avg_mshr_miss_latency::.cpu0.data 88012.803236                       # average ReadReq mshr miss latency
system.cpu0.dcache.ReadReq_avg_mshr_miss_latency::total 88012.803236                       # average ReadReq mshr miss latency
system.cpu0.dcache.WriteReq_hits::.cpu0.data      5557139                       # number of WriteReq hits
system.cpu0.dcache.WriteReq_hits::total       5557139                       # number of WriteReq hits
system.cpu0.dcache.WriteReq_misses::.cpu0.data          256                       # number of WriteReq misses
system.cpu0.dcache.WriteReq_misses::total          256                       # number of WriteReq misses
system.cpu0.dcache.WriteReq_miss_latency::.cpu0.data     11783205                       # number of WriteReq miss cycles
system.cpu0.dcache.WriteReq_miss_latency::total     11783205                       # number of WriteReq miss cycles
system.cpu0.dcache.WriteReq_accesses::.cpu0.data      5557395                       # number of WriteReq accesses(hits+misses)
system.cpu0.dcache.WriteReq_accesses::total      5557395                       # number of WriteReq accesses(hits+misses)
system.cpu0.dcache.WriteReq_miss_rate::.cpu0.data     0.000046                       # miss rate for WriteReq accesses
system.cpu0.dcache.WriteReq_miss_rate::total     0.000046                       # miss rate for WriteReq accesses
system.cpu0.dcache.WriteReq_avg_miss_latency::.cpu0.data 46028.144531                       # average WriteReq miss latency
system.cpu0.dcache.WriteReq_avg_miss_latency::total 46028.144531                       # average WriteReq miss latency
system.cpu0.dcache.WriteReq_mshr_misses::.cpu0.data          256                       # number of WriteReq MSHR misses
system.cpu0.dcache.WriteReq_mshr_misses::total          256                       # number of WriteReq MSHR misses
system.cpu0.dcache.WriteReq_mshr_miss_latency::.cpu0.data     11612709                       # number of WriteReq MSHR miss cycles
system.cpu0.dcache.WriteReq_mshr_miss_latency::total     11612709                       # number of WriteReq MSHR miss cycles
system.cpu0.dcache.WriteReq_mshr_miss_rate::.cpu0.data     0.000046                       # mshr miss rate for WriteReq accesses
system.cpu0.dcache.WriteReq_mshr_miss_rate::total     0.000046                       # mshr miss rate for WriteReq accesses
system.cpu0.dcache.WriteReq_avg_mshr_miss_latency::.cpu0.data 45362.144531                       # average WriteReq mshr miss latency
system.cpu0.dcache.WriteReq_avg_mshr_miss_latency::total 45362.144531                       # average WriteReq mshr miss latency
system.cpu0.dcache.tags.pwrStateResidencyTicks::UNDEFINED  67658878062                       # Cumulative time (in ticks) in various power states
system.cpu0.dcache.tags.tagsinuse            7.999914                       # Cycle average of tags in use
system.cpu0.dcache.tags.total_refs           16670458                       # Total number of references to valid blocks.
system.cpu0.dcache.tags.sampled_refs           347916                       # Sample count of references to valid blocks.
system.cpu0.dcache.tags.avg_refs            47.915181                       # Average number of references to valid blocks.
system.cpu0.dcache.tags.warmup_cycle           166167                       # Cycle when the warmup percentage was hit.
system.cpu0.dcache.tags.occ_blocks::.cpu0.data     7.999914                       # Average occupied blocks per requestor
system.cpu0.dcache.tags.occ_percent::.cpu0.data     0.999989                       # Average percentage of cache occupancy
system.cpu0.dcache.tags.occ_percent::total     0.999989                       # Average percentage of cache occupancy
system.cpu0.dcache.tags.occ_task_id_blocks::1024            8                       # Occupied blocks per task id
system.cpu0.dcache.tags.age_task_id_blocks_1024::0            8                       # Occupied blocks per task id
system.cpu0.dcache.tags.occ_task_id_percent::1024            1                       # Percentage of cache occupancy per task id
system.cpu0.dcache.tags.tag_accesses        133711580                       # Number of tag accesses
system.cpu0.dcache.tags.data_accesses       133711580                       # Number of data accesses
system.cpu0.dcache.tags.repl_invalid                0                       # Number of initial replacements
system.cpu0.dcache.tags.repl_valid_tag              0                       # Number of local replacements
system.cpu0.dcache.tags.repl_valid_data             0                       # Number of global replacements
system.cpu1.numPwrStateTransitions                  1                       # Number of power state transitions
system.cpu1.pwrStateResidencyTicks::ON    67658878062                       # Cumulative time (in ticks) in various power states
system.cpu1.icache.pwrStateResidencyTicks::UNDEFINED  67658878062                       # Cumulative time (in ticks) in various power states
system.cpu1.icache.demand_hits::.cpu1.inst     14833150                       # number of demand (read+write) hits
system.cpu1.icache.demand_hits::total        14833150                       # number of demand (read+write) hits
system.cpu1.icache.overall_hits::.cpu1.inst     14833150                       # number of overall hits
system.cpu1.icache.overall_hits::total       14833150                       # number of overall hits
system.cpu1.icache.demand_misses::.cpu1.inst         3807                       # number of demand (read+write) misses
system.cpu1.icache.demand_misses::total          3807                       # number of demand (read+write) misses
system.cpu1.icache.overall_misses::.cpu1.inst         3807                       # number of overall misses
system.cpu1.icache.overall_misses::total         3807                       # number of overall misses
system.cpu1.icache.demand_miss_latency::.cpu1.inst    228530574                       # number of demand (read+write) miss cycles
system.cpu1.icache.demand_miss_latency::total    228530574                       # number of demand (read+write) miss cycles
system.cpu1.icache.overall_miss_latency::.cpu1.inst    228530574                       # number of overall miss cycles
system.cpu1.icache.overall_miss_latency::total    228530574                       # number of overall miss cycles
system.cpu1.icache.demand_accesses::.cpu1.inst     14836957                       # number of demand (read+write) accesses
system.cpu1.icache.demand_accesses::total     14836957                       # number of demand (read+write) accesses
system.cpu1.icache.overall_accesses::.cpu1.inst     14836957                       # number of overall (read+write) accesses
system.cpu1.icache.overall_accesses::total     14836957                       # number of overall (read+write) accesses
system.cpu1.icache.demand_miss_rate::.cpu1.inst     0.000257                       # miss rate for demand accesses
system.cpu1.icache.demand_miss_rate::total     0.000257                       # miss rate for demand accesses
system.cpu1.icache.overall_miss_rate::.cpu1.inst     0.000257                       # miss rate for overall accesses
system.cpu1.icache.overall_miss_rate::total     0.000257                       # miss rate for overall accesses
system.cpu1.icache.demand_avg_miss_latency::.cpu1.inst 60029.044917                       # average overall miss latency
system.cpu1.icache.demand_avg_miss_latency::total 60029.044917                       # average overall miss latency
system.cpu1.icache.overall_avg_miss_latency::.cpu1.inst 60029.044917                       # average overall miss latency
system.cpu1.icache.overall_avg_miss_latency::total 60029.044917                       # average overall miss latency
system.cpu1.icache.blocked_cycles::no_mshrs            0                       # number of cycles access was blocked
system.cpu1.icache.blocked_cycles::no_targets            0                       # number of cycles access was blocked
system.cpu1.icache.blocked::no_mshrs                0                       # number of cycles access was blocked
system.cpu1.icache.blocked::no_targets              0                       # number of cycles access was blocked
system.cpu1.icache.avg_blocked_cycles::no_mshrs          nan                       # average number of cycles each access was blocked
system.cpu1.icache.avg_blocked_cycles::no_targets          nan                       # average number of cycles each access was blocked
system.cpu1.icache.writebacks::.writebacks         3295                       # number of writebacks
system.cpu1.icache.writebacks::total             3295                       # number of writebacks
system.cpu1.icache.demand_mshr_misses::.cpu1.inst         3807                       # number of demand (read+write) MSHR misses
system.cpu1.icache.demand_mshr_misses::total         3807                       # number of demand (read+write) MSHR misses
system.cpu1.icache.overall_mshr_misses::.cpu1.inst         3807                       # number of overall MSHR misses
system.cpu1.icache.overall_mshr_misses::total         3807                       # number of overall MSHR misses
system.cpu1.icache.demand_mshr_miss_latency::.cpu1.inst    225995112                       # number of demand (read+write) MSHR miss cycles
system.cpu1.icache.demand_mshr_miss_latency::total    225995112                       # number of demand (read+write) MSHR miss cycles
system.cpu1.icache.overall_mshr_miss_latency::.cpu1.inst    225995112                       # number of overall MSHR miss cycles
system.cpu1.icache.overall_mshr_miss_latency::total    225995112                       # number of overall MSHR miss cycles
system.cpu1.icache.demand_mshr_miss_rate::.cpu1.inst     0.000257                       # mshr miss rate for demand accesses
system.cpu1.icache.demand_mshr_miss_rate::total     0.000257                       # mshr miss rate for demand accesses
system.cpu1.icache.overall_mshr_miss_rate::.cpu1.inst     0.000257                       # mshr miss rate for overall accesses
system.cpu1.icache.overall_mshr_miss_rate::total     0.000257                       # mshr miss rate for overall accesses
system.cpu1.icache.demand_avg_mshr_miss_latency::.cpu1.inst 59363.044917                       # average overall mshr miss latency
system.cpu1.icache.demand_avg_mshr_miss_latency::total 59363.044917                       # average overall mshr miss latency
system.cpu1.icache.overall_avg_mshr_miss_latency::.cpu1.inst 59363.044917                       # average overall mshr miss latency
system.cpu1.icache.overall_avg_mshr_miss_latency::total 59363.044917                       # average overall mshr miss latency
system.cpu1.icache.replacements                  3295                       # number of replacements
system.cpu1.icache.ReadReq_hits::.cpu1.inst     14833150                       # number of ReadReq hits
system.cpu1.icache.ReadReq_hits::total       14833150                       # number of ReadReq hits
system.cpu1.icache.ReadReq_misses::.cpu1.inst         3807                       # number of ReadReq misses
system.cpu1.icache.ReadReq_misses::total         3807                       # number of ReadReq misses
system.cpu1.icache.ReadReq_miss_latency::.cpu1.inst    228530574                       # number of ReadReq miss cycles
system.cpu1.icache.ReadReq_miss_latency::total    228530574                       # number of ReadReq miss cycles
system.cpu1.icache.ReadReq_accesses::.cpu1.inst     14836957                       # number of ReadReq accesses(hits+misses)
system.cpu1.icache.ReadReq_accesses::total     14836957                       # number of ReadReq accesses(hits+misses)
system.cpu1.icache.ReadReq_miss_rate::.cpu1.inst     0.000257                       # miss rate for ReadReq accesses
system.cpu1.icache.ReadReq_miss_rate::total     0.000257                       # miss rate for ReadReq accesses
system.cpu1.icache.ReadReq_avg_miss_latency::.cpu1.inst 60029.044917                       # average ReadReq miss latency
system.cpu1.icache.ReadReq_avg_miss_latency::total 60029.044917                       # average ReadReq miss latency
system.cpu1.icache.ReadReq_mshr_misses::.cpu1.inst         3807                       # number of ReadReq MSHR misses
system.cpu1.icache.ReadReq_mshr_misses::total         3807                       # number of ReadReq MSHR misses
system.cpu1.icache.ReadReq_mshr_miss_latency::.cpu1.inst    225995112                       # number of ReadReq MSHR miss cycles
system.cpu1.icache.ReadReq_mshr_miss_latency::total    225995112                       # number of ReadReq MSHR miss cycles
system.cpu1.icache.ReadReq_mshr_miss_rate::.cpu1.inst     0.000257                       # mshr miss rate for ReadReq accesses
system.cpu1.icache.ReadReq_mshr_miss_rate::total     0.000257                       # mshr miss rate for ReadReq accesses
system.cpu1.icache.ReadReq_avg_mshr_miss_latency::.cpu1.inst 59363.044917                       # average ReadReq mshr miss latency
system.cpu1.icache.ReadReq_avg_mshr_miss_latency::total 59363.044917                       # average ReadReq mshr miss latency
system.cpu1.icache.tags.pwrStateResidencyTicks::UNDEFINED  67658878062                       # Cumulative time (in ticks) in various power states
system.cpu1.icache.tags.tagsinuse          511.578820                       # Cycle average of tags in use
system.cpu1.icache.tags.total_refs           14836957                       # Total number of references to valid blocks.
system.cpu1.icache.tags.sampled_refs             3807                       # Sample count of references to valid blocks.
system.cpu1.icache.tags.avg_refs          3897.283163                       # Average number of references to valid blocks.
system.cpu1.icache.tags.warmup_cycle            88245                       # Cycle when the warmup percentage was hit.
system.cpu1.icache.tags.occ_blocks::.cpu1.inst   511.578820                       # Average occupied blocks per requestor
system.cpu1.icache.tags.occ_percent::.cpu1.inst     0.999177                       # Average percentage of cache occupancy
system.cpu1.icache.tags.occ_percent::total     0.999177                       # Average percentage of cache occupancy
system.cpu1.icache.tags.occ_task_id_blocks::1024          512                       # Occupied blocks per task id
system.cpu1.icache.tags.age_task_id_blocks_1024::4          512                       # Occupied blocks per task id
system.cpu1.icache.tags.occ_task_id_percent::1024            1                       # Percentage of cache occupancy per task id
system.cpu1.icache.tags.tag_accesses        118699463                       # Number of tag accesses
system.cpu1.icache.tags.data_accesses       118699463                       # Number of data accesses
system.cpu1.icache.tags.repl_invalid                0                       # Number of initial replacements
system.cpu1.icache.tags.repl_valid_tag              0                       # Number of local replacements
system.cpu1.icache.tags.repl_valid_data             0                       # Number of global replacements
system.cpu1.dtb.walker.pwrStateResidencyTicks::UNDEFINED  67658878062                       # Cumulative time (in ticks) in various power states
system.cpu1.interrupts.clk_domain.clock          5328                       # Clock period in ticks
system.cpu1.itb_walker_cache.pwrStateResidencyTicks::UNDEFINED  67658878062                       # Cumulative time (in ticks) in various power states
system.cpu1.itb_walker_cache.blocked_cycles::no_mshrs            0                       # number of cycles access was blocked
system.cpu1.itb_walker_cache.blocked_cycles::no_targets            0                       # number of cycles access was blocked
system.cpu1.itb_walker_cache.blocked::no_mshrs            0                       # number of cycles access was blocked
system.cpu1.itb_walker_cache.blocked::no_targets            0                       # number of cycles access was blocked
system.cpu1.itb_walker_cache.avg_blocked_cycles::no_mshrs          nan                       # average number of cycles each access was blocked
system.cpu1.itb_walker_cache.avg_blocked_cycles::no_targets          nan                       # average number of cycles each access was blocked
system.cpu1.itb_walker_cache.replacements            0                       # number of replacements
system.cpu1.itb_walker_cache.tags.pwrStateResidencyTicks::UNDEFINED  67658878062                       # Cumulative time (in ticks) in various power states
system.cpu1.itb_walker_cache.tags.tagsinuse            0                       # Cycle average of tags in use
system.cpu1.itb_walker_cache.tags.total_refs            0                       # Total number of references to valid blocks.
system.cpu1.itb_walker_cache.tags.sampled_refs            0                       # Sample count of references to valid blocks.
system.cpu1.itb_walker_cache.tags.avg_refs          nan                       # Average number of references to valid blocks.
system.cpu1.itb_walker_cache.tags.warmup_cycle            0                       # Cycle when the warmup percentage was hit.
system.cpu1.itb_walker_cache.tags.tag_accesses            0                       # Number of tag accesses
system.cpu1.itb_walker_cache.tags.data_accesses            0                       # Number of data accesses
system.cpu1.itb_walker_cache.tags.repl_invalid            0                       # Number of initial replacements
system.cpu1.itb_walker_cache.tags.repl_valid_tag            0                       # Number of local replacements
system.cpu1.itb_walker_cache.tags.repl_valid_data            0                       # Number of global replacements
system.cpu1.itb.walker.pwrStateResidencyTicks::UNDEFINED  67658878062                       # Cumulative time (in ticks) in various power states
system.cpu1.dtb_walker_cache.pwrStateResidencyTicks::UNDEFINED  67658878062                       # Cumulative time (in ticks) in various power states
system.cpu1.dtb_walker_cache.blocked_cycles::no_mshrs            0                       # number of cycles access was blocked
system.cpu1.dtb_walker_cache.blocked_cycles::no_targets            0                       # number of cycles access was blocked
system.cpu1.dtb_walker_cache.blocked::no_mshrs            0                       # number of cycles access was blocked
system.cpu1.dtb_walker_cache.blocked::no_targets            0                       # number of cycles access was blocked
system.cpu1.dtb_walker_cache.avg_blocked_cycles::no_mshrs          nan                       # average number of cycles each access was blocked
system.cpu1.dtb_walker_cache.avg_blocked_cycles::no_targets          nan                       # average number of cycles each access was blocked
system.cpu1.dtb_walker_cache.replacements            0                       # number of replacements
system.cpu1.dtb_walker_cache.tags.pwrStateResidencyTicks::UNDEFINED  67658878062                       # Cumulative time (in ticks) in various power states
system.cpu1.dtb_walker_cache.tags.tagsinuse            0                       # Cycle average of tags in use
system.cpu1.dtb_walker_cache.tags.total_refs            0                       # Total number of references to valid blocks.
system.cpu1.dtb_walker_cache.tags.sampled_refs            0                       # Sample count of references to valid blocks.
system.cpu1.dtb_walker_cache.tags.avg_refs          nan                       # Average number of references to valid blocks.
system.cpu1.dtb_walker_cache.tags.warmup_cycle            0                       # Cycle when the warmup percentage was hit.
system.cpu1.dtb_walker_cache.tags.tag_accesses            0                       # Number of tag accesses
system.cpu1.dtb_walker_cache.tags.data_accesses            0                       # Number of data accesses
system.cpu1.dtb_walker_cache.tags.repl_invalid            0                       # Number of initial replacements
system.cpu1.dtb_walker_cache.tags.repl_valid_tag            0                       # Number of local replacements
system.cpu1.dtb_walker_cache.tags.repl_valid_data            0                       # Number of global replacements
system.cpu1.dcache.pwrStateResidencyTicks::UNDEFINED  67658878062                       # Cumulative time (in ticks) in various power states
system.cpu1.dcache.demand_hits::.cpu1.data      3123207                       # number of demand (read+write) hits
system.cpu1.dcache.demand_hits::total         3123207                       # number of demand (read+write) hits
system.cpu1.dcache.overall_hits::.cpu1.data      3123207                       # number of overall hits
system.cpu1.dcache.overall_hits::total        3123207                       # number of overall hits
system.cpu1.dcache.demand_misses::.cpu1.data       391988                       # number of demand (read+write) misses
system.cpu1.dcache.demand_misses::total        391988                       # number of demand (read+write) misses
system.cpu1.dcache.overall_misses::.cpu1.data       391988                       # number of overall misses
system.cpu1.dcache.overall_misses::total       391988                       # number of overall misses
system.cpu1.dcache.demand_miss_latency::.cpu1.data   4939571484                       # number of demand (read+write) miss cycles
system.cpu1.dcache.demand_miss_latency::total   4939571484                       # number of demand (read+write) miss cycles
system.cpu1.dcache.overall_miss_latency::.cpu1.data   4939571484                       # number of overall miss cycles
system.cpu1.dcache.overall_miss_latency::total   4939571484                       # number of overall miss cycles
system.cpu1.dcache.demand_accesses::.cpu1.data      3515195                       # number of demand (read+write) accesses
system.cpu1.dcache.demand_accesses::total      3515195                       # number of demand (read+write) accesses
system.cpu1.dcache.overall_accesses::.cpu1.data      3515195                       # number of overall (read+write) accesses
system.cpu1.dcache.overall_accesses::total      3515195                       # number of overall (read+write) accesses
system.cpu1.dcache.demand_miss_rate::.cpu1.data     0.111512                       # miss rate for demand accesses
system.cpu1.dcache.demand_miss_rate::total     0.111512                       # miss rate for demand accesses
system.cpu1.dcache.overall_miss_rate::.cpu1.data     0.111512                       # miss rate for overall accesses
system.cpu1.dcache.overall_miss_rate::total     0.111512                       # miss rate for overall accesses
system.cpu1.dcache.demand_avg_miss_latency::.cpu1.data 12601.333418                       # average overall miss latency
system.cpu1.dcache.demand_avg_miss_latency::total 12601.333418                       # average overall miss latency
system.cpu1.dcache.overall_avg_miss_latency::.cpu1.data 12601.333418                       # average overall miss latency
system.cpu1.dcache.overall_avg_miss_latency::total 12601.333418                       # average overall miss latency
system.cpu1.dcache.blocked_cycles::no_mshrs            0                       # number of cycles access was blocked
system.cpu1.dcache.blocked_cycles::no_targets            0                       # number of cycles access was blocked
system.cpu1.dcache.blocked::no_mshrs                0                       # number of cycles access was blocked
system.cpu1.dcache.blocked::no_targets              0                       # number of cycles access was blocked
system.cpu1.dcache.avg_blocked_cycles::no_mshrs          nan                       # average number of cycles each access was blocked
system.cpu1.dcache.avg_blocked_cycles::no_targets          nan                       # average number of cycles each access was blocked
system.cpu1.dcache.writebacks::.writebacks       227948                       # number of writebacks
system.cpu1.dcache.writebacks::total           227948                       # number of writebacks
system.cpu1.dcache.demand_mshr_misses::.cpu1.data       391988                       # number of demand (read+write) MSHR misses
system.cpu1.dcache.demand_mshr_misses::total       391988                       # number of demand (read+write) MSHR misses
system.cpu1.dcache.overall_mshr_misses::.cpu1.data       391988                       # number of overall MSHR misses
system.cpu1.dcache.overall_mshr_misses::total       391988                       # number of overall MSHR misses
system.cpu1.dcache.demand_mshr_miss_latency::.cpu1.data   4678507476                       # number of demand (read+write) MSHR miss cycles
system.cpu1.dcache.demand_mshr_miss_latency::total   4678507476                       # number of demand (read+write) MSHR miss cycles
system.cpu1.dcache.overall_mshr_miss_latency::.cpu1.data   4678507476                       # number of overall MSHR miss cycles
system.cpu1.dcache.overall_mshr_miss_latency::total   4678507476                       # number of overall MSHR miss cycles
system.cpu1.dcache.demand_mshr_miss_rate::.cpu1.data     0.111512                       # mshr miss rate for demand accesses
system.cpu1.dcache.demand_mshr_miss_rate::total     0.111512                       # mshr miss rate for demand accesses
system.cpu1.dcache.overall_mshr_miss_rate::.cpu1.data     0.111512                       # mshr miss rate for overall accesses
system.cpu1.dcache.overall_mshr_miss_rate::total     0.111512                       # mshr miss rate for overall accesses
system.cpu1.dcache.demand_avg_mshr_miss_latency::.cpu1.data 11935.333418                       # average overall mshr miss latency
system.cpu1.dcache.demand_avg_mshr_miss_latency::total 11935.333418                       # average overall mshr miss latency
system.cpu1.dcache.overall_avg_mshr_miss_latency::.cpu1.data 11935.333418                       # average overall mshr miss latency
system.cpu1.dcache.overall_avg_mshr_miss_latency::total 11935.333418                       # average overall mshr miss latency
system.cpu1.dcache.replacements                391980                       # number of replacements
system.cpu1.dcache.ReadReq_hits::.cpu1.data      1826726                       # number of ReadReq hits
system.cpu1.dcache.ReadReq_hits::total        1826726                       # number of ReadReq hits
system.cpu1.dcache.ReadReq_misses::.cpu1.data       363352                       # number of ReadReq misses
system.cpu1.dcache.ReadReq_misses::total       363352                       # number of ReadReq misses
system.cpu1.dcache.ReadReq_miss_latency::.cpu1.data   4314845835                       # number of ReadReq miss cycles
system.cpu1.dcache.ReadReq_miss_latency::total   4314845835                       # number of ReadReq miss cycles
system.cpu1.dcache.ReadReq_accesses::.cpu1.data      2190078                       # number of ReadReq accesses(hits+misses)
system.cpu1.dcache.ReadReq_accesses::total      2190078                       # number of ReadReq accesses(hits+misses)
system.cpu1.dcache.ReadReq_miss_rate::.cpu1.data     0.165908                       # miss rate for ReadReq accesses
system.cpu1.dcache.ReadReq_miss_rate::total     0.165908                       # miss rate for ReadReq accesses
system.cpu1.dcache.ReadReq_avg_miss_latency::.cpu1.data 11875.112384                       # average ReadReq miss latency
system.cpu1.dcache.ReadReq_avg_miss_latency::total 11875.112384                       # average ReadReq miss latency
system.cpu1.dcache.ReadReq_mshr_misses::.cpu1.data       363352                       # number of ReadReq MSHR misses
system.cpu1.dcache.ReadReq_mshr_misses::total       363352                       # number of ReadReq MSHR misses
system.cpu1.dcache.ReadReq_mshr_miss_latency::.cpu1.data   4072853403                       # number of ReadReq MSHR miss cycles
system.cpu1.dcache.ReadReq_mshr_miss_latency::total   4072853403                       # number of ReadReq MSHR miss cycles
system.cpu1.dcache.ReadReq_mshr_miss_rate::.cpu1.data     0.165908                       # mshr miss rate for ReadReq accesses
system.cpu1.dcache.ReadReq_mshr_miss_rate::total     0.165908                       # mshr miss rate for ReadReq accesses
system.cpu1.dcache.ReadReq_avg_mshr_miss_latency::.cpu1.data 11209.112384                       # average ReadReq mshr miss latency
system.cpu1.dcache.ReadReq_avg_mshr_miss_latency::total 11209.112384                       # average ReadReq mshr miss latency
system.cpu1.dcache.WriteReq_hits::.cpu1.data      1296481                       # number of WriteReq hits
system.cpu1.dcache.WriteReq_hits::total       1296481                       # number of WriteReq hits
system.cpu1.dcache.WriteReq_misses::.cpu1.data        28636                       # number of WriteReq misses
[...]
system.mem_ctrls.wrQLenPdf::109                     0                       # What write queue length does an incoming req see
system.mem_ctrls.wrQLenPdf::110                     0                       # What write queue length does an incoming req see
system.mem_ctrls.wrQLenPdf::111                     0                       # What write queue length does an incoming req see
system.mem_ctrls.wrQLenPdf::112                     0                       # What write queue length does an incoming req see
system.mem_ctrls.wrQLenPdf::113                     0                       # What write queue length does an incoming req see
system.mem_ctrls.wrQLenPdf::114                     0                       # What write queue length does an incoming req see
system.mem_ctrls.wrQLenPdf::115                     0                       # What write queue length does an incoming req see
system.mem_ctrls.wrQLenPdf::116                     0                       # What write queue length does an incoming req see
system.mem_ctrls.wrQLenPdf::117                     0                       # What write queue length does an incoming req see
system.mem_ctrls.wrQLenPdf::118                     0                       # What write queue length does an incoming req see
system.mem_ctrls.wrQLenPdf::119                     0                       # What write queue length does an incoming req see
system.mem_ctrls.wrQLenPdf::120                     0                       # What write queue length does an incoming req see
system.mem_ctrls.wrQLenPdf::121                     0                       # What write queue length does an incoming req see
system.mem_ctrls.wrQLenPdf::122                     0                       # What write queue length does an incoming req see
system.mem_ctrls.wrQLenPdf::123                     0                       # What write queue length does an incoming req see
system.mem_ctrls.wrQLenPdf::124                     0                       # What write queue length does an incoming req see
system.mem_ctrls.wrQLenPdf::125                     0                       # What write queue length does an incoming req see
system.mem_ctrls.wrQLenPdf::126                     0                       # What write queue length does an incoming req see
system.mem_ctrls.wrQLenPdf::127                     0                       # What write queue length does an incoming req see
system.mem_ctrls.bytesPerActivate::samples       358940                       # Bytes accessed per row activation
system.mem_ctrls.bytesPerActivate::mean            64                       # Bytes accessed per row activation
system.mem_ctrls.bytesPerActivate::gmean    64.000000                       # Bytes accessed per row activation
system.mem_ctrls.bytesPerActivate::64-71       358940    100.00%    100.00% # Bytes accessed per row activation
system.mem_ctrls.bytesPerActivate::total       358940                       # Bytes accessed per row activation
system.mem_ctrls.rdPerTurnAround::samples           64                       # Reads before turning the bus around for writes
system.mem_ctrls.rdPerTurnAround::mean    5580.156250                       # Reads before turning the bus around for writes
system.mem_ctrls.rdPerTurnAround::gmean   2143.620193                       # Reads before turning the bus around for writes
system.mem_ctrls.rdPerTurnAround::stdev  27653.246623                       # Reads before turning the bus around for writes
system.mem_ctrls.rdPerTurnAround::0-4095           61     95.31%     95.31% # Reads before turning the bus around for writes
system.mem_ctrls.rdPerTurnAround::4096-8191            2      3.12%     98.44% # Reads before turning the bus around for writes
system.mem_ctrls.rdPerTurnAround::221184-225279            1      1.56%    100.00% # Reads before turning the bus around for writes
system.mem_ctrls.rdPerTurnAround::total            64                       # Reads before turning the bus around for writes
system.mem_ctrls.wrPerTurnAround::samples           64                       # Writes before turning the bus around for reads
system.mem_ctrls.wrPerTurnAround::mean             18                       # Writes before turning the bus around for reads
system.mem_ctrls.wrPerTurnAround::gmean     18.000000                       # Writes before turning the bus around for reads
system.mem_ctrls.wrPerTurnAround::18               64    100.00%    100.00% # Writes before turning the bus around for reads
system.mem_ctrls.wrPerTurnAround::total            64                       # Writes before turning the bus around for reads
system.mem_ctrls.bytesReadDRAM               22898432                       # Total number of bytes read from DRAM
system.mem_ctrls.bytesReadWrQ                       0                       # Total number of bytes read from write queue
system.mem_ctrls.bytesWritten                   73728                       # Total number of bytes written to DRAM
system.mem_ctrls.bytesReadSys                22898432                       # Total read bytes from the system interface side
system.mem_ctrls.bytesWrittenSys                77312                       # Total written bytes from the system interface side
system.mem_ctrls.avgRdBW                       338.44                       # Average DRAM read bandwidth in MiByte/s
system.mem_ctrls.avgWrBW                         1.09                       # Average achieved write bandwidth in MiByte/s
system.mem_ctrls.avgRdBWSys                    338.44                       # Average system read bandwidth in MiByte/s
system.mem_ctrls.avgWrBWSys                      1.14                       # Average system write bandwidth in MiByte/s
system.mem_ctrls.peakBW                      19207.00                       # Theoretical peak bandwidth in MiByte/s
system.mem_ctrls.busUtil                         1.77                       # Data bus utilization in percentage
system.mem_ctrls.busUtilRead                     1.76                       # Data bus utilization in percentage for reads
system.mem_ctrls.busUtilWrite                    0.01                       # Data bus utilization in percentage for writes
system.mem_ctrls.totGap                   67658796144                       # Total gap between requests
system.mem_ctrls.avgGap                     188466.71                       # Average gap between requests
system.mem_ctrls.masterReadBytes::.cpu0.inst        28736                       # Per-master bytes read from memory
system.mem_ctrls.masterReadBytes::.cpu0.data     22236928                       # Per-master bytes read from memory
system.mem_ctrls.masterReadBytes::.cpu1.inst       161088                       # Per-master bytes read from memory
system.mem_ctrls.masterReadBytes::.cpu1.data       471680                       # Per-master bytes read from memory
system.mem_ctrls.masterWriteBytes::.writebacks        73728                       # Per-master bytes write to memory
system.mem_ctrls.masterReadRate::.cpu0.inst 424718.836952445970                       # Per-master bytes read from memory rate (Bytes/sec)
system.mem_ctrls.masterReadRate::.cpu0.data 328662381.596439361572                       # Per-master bytes read from memory rate (Bytes/sec)
system.mem_ctrls.masterReadRate::.cpu1.inst 2380884.883316941094                       # Per-master bytes read from memory rate (Bytes/sec)
system.mem_ctrls.masterReadRate::.cpu1.data 6971442.824809636921                       # Per-master bytes read from memory rate (Bytes/sec)
system.mem_ctrls.masterWriteRate::.writebacks 1089701.782114070840                       # Per-master bytes write to memory rate (Bytes/sec)
system.mem_ctrls.masterReadAccesses::.cpu0.inst          449                       # Per-master read serviced memory accesses
system.mem_ctrls.masterReadAccesses::.cpu0.data       347452                       # Per-master read serviced memory accesses
system.mem_ctrls.masterReadAccesses::.cpu1.inst         2517                       # Per-master read serviced memory accesses
system.mem_ctrls.masterReadAccesses::.cpu1.data         7370                       # Per-master read serviced memory accesses
system.mem_ctrls.masterWriteAccesses::.writebacks         1208                       # Per-master write serviced memory accesses
system.mem_ctrls.masterReadTotalLat::.cpu0.inst     15689831                       # Per-master read total memory access latency
system.mem_ctrls.masterReadTotalLat::.cpu0.data  13998118611                       # Per-master read total memory access latency
system.mem_ctrls.masterReadTotalLat::.cpu1.inst     91686390                       # Per-master read total memory access latency
system.mem_ctrls.masterReadTotalLat::.cpu1.data    281367591                       # Per-master read total memory access latency
system.mem_ctrls.masterWriteTotalLat::.writebacks 1642950669224                       # Per-master write total memory access latency
system.mem_ctrls.masterReadAvgLat::.cpu0.inst     34943.94                       # Per-master read average memory access latency
system.mem_ctrls.masterReadAvgLat::.cpu0.data     40287.92                       # Per-master read average memory access latency
system.mem_ctrls.masterReadAvgLat::.cpu1.inst     36426.85                       # Per-master read average memory access latency
system.mem_ctrls.masterReadAvgLat::.cpu1.data     38177.42                       # Per-master read average memory access latency
system.mem_ctrls.masterWriteAvgLat::.writebacks 1360058501.01                       # Per-master write average memory access latency
system.mem_ctrls.pageHitRate                     0.00                       # Row buffer hit rate, read and write combined
system.mem_ctrls.rank1.actEnergy         279819107.567987                       # Energy for activate commands per rank (pJ)
system.mem_ctrls.rank1.preEnergy         493988347.591287                       # Energy for precharge commands per rank (pJ)
system.mem_ctrls.rank1.readEnergy        490631180.995155                       # Energy for read commands per rank (pJ)
system.mem_ctrls.rank1.writeEnergy       1344661.920000                       # Energy for write commands per rank (pJ)
system.mem_ctrls.rank1.refreshEnergy     5872508870.473799                       # Energy for refresh commands per rank (pJ)
system.mem_ctrls.rank1.actBackEnergy     4084686039.772857                       # Energy for active background per rank (pJ)
system.mem_ctrls.rank1.preBackEnergy     19263973039.315384                       # Energy for precharge background per rank (pJ)
system.mem_ctrls.rank1.actPowerDownEnergy            0                       # Energy for active power-down per rank (pJ)
system.mem_ctrls.rank1.prePowerDownEnergy            0                       # Energy for precharge power-down per rank (pJ)
system.mem_ctrls.rank1.selfRefreshEnergy            0                       # Energy for self refresh per rank (pJ)
system.mem_ctrls.rank1.totalEnergy       30486951247.637383                       # Total energy per rank (pJ)
system.mem_ctrls.rank1.averagePower        450.597943                       # Core power per rank (mW)
system.mem_ctrls.rank1.totalIdleTime                0                       # Total Idle time Per DRAM Rank
system.mem_ctrls.rank1.memoryStateTime::IDLE  56384091937                       # Time in different power states
system.mem_ctrls.rank1.memoryStateTime::REF   3041150000                       # Time in different power states
system.mem_ctrls.rank1.memoryStateTime::SREF            0                       # Time in different power states
system.mem_ctrls.rank1.memoryStateTime::PRE_PDN            0                       # Time in different power states
system.mem_ctrls.rank1.memoryStateTime::ACT   8233636125                       # Time in different power states
system.mem_ctrls.rank1.memoryStateTime::ACT_PDN            0                       # Time in different power states
system.mem_ctrls.rank0.actEnergy         279903313.871987                       # Energy for activate commands per rank (pJ)
system.mem_ctrls.rank0.preEnergy         494137004.104887                       # Energy for precharge commands per rank (pJ)
system.mem_ctrls.rank0.readEnergy        490746382.895955                       # Energy for read commands per rank (pJ)
system.mem_ctrls.rank0.writeEnergy       1372970.592000                       # Energy for write commands per rank (pJ)
system.mem_ctrls.rank0.refreshEnergy     5872508870.473799                       # Energy for refresh commands per rank (pJ)
system.mem_ctrls.rank0.actBackEnergy     4085929794.072052                       # Energy for active background per rank (pJ)
system.mem_ctrls.rank0.preBackEnergy     19263114406.905895                       # Energy for precharge background per rank (pJ)
system.mem_ctrls.rank0.actPowerDownEnergy            0                       # Energy for active power-down per rank (pJ)
system.mem_ctrls.rank0.prePowerDownEnergy            0                       # Energy for precharge power-down per rank (pJ)
system.mem_ctrls.rank0.selfRefreshEnergy            0                       # Energy for self refresh per rank (pJ)
system.mem_ctrls.rank0.totalEnergy       30487712742.917248                       # Total energy per rank (pJ)
system.mem_ctrls.rank0.averagePower        450.609197                       # Core power per rank (mW)
system.mem_ctrls.rank0.totalIdleTime                0                       # Total Idle time Per DRAM Rank
system.mem_ctrls.rank0.memoryStateTime::IDLE  56380338220                       # Time in different power states
system.mem_ctrls.rank0.memoryStateTime::REF   3041150000                       # Time in different power states
system.mem_ctrls.rank0.memoryStateTime::SREF            0                       # Time in different power states
system.mem_ctrls.rank0.memoryStateTime::PRE_PDN            0                       # Time in different power states
system.mem_ctrls.rank0.memoryStateTime::ACT   8237389842                       # Time in different power states
system.mem_ctrls.rank0.memoryStateTime::ACT_PDN            0                       # Time in different power states
system.cpu_clk_domain.clock                       333                       # Clock period in ticks
system.tol2bus.pwrStateResidencyTicks::UNDEFINED  67658878062                       # Cumulative time (in ticks) in various power states
system.tol2bus.trans_dist::ReadResp            715268                       # Transaction distribution
system.tol2bus.trans_dist::WritebackDirty       229691                       # Transaction distribution
system.tol2bus.trans_dist::WritebackClean         3313                       # Transaction distribution
system.tol2bus.trans_dist::CleanEvict          606829                       # Transaction distribution
system.tol2bus.trans_dist::ReadExReq            28892                       # Transaction distribution
system.tol2bus.trans_dist::ReadExResp           28892                       # Transaction distribution
system.tol2bus.trans_dist::ReadCleanReq          4256                       # Transaction distribution
system.tol2bus.trans_dist::ReadSharedReq       711012                       # Transaction distribution
system.tol2bus.pkt_count_system.cpu0.icache.mem_side::system.l2.cpu_side          916                       # Packet count per connected master and slave (bytes)
system.tol2bus.pkt_count_system.cpu0.dcache.mem_side::system.l2.cpu_side      1043740                       # Packet count per connected master and slave (bytes)
system.tol2bus.pkt_count_system.cpu1.icache.mem_side::system.l2.cpu_side        10909                       # Packet count per connected master and slave (bytes)
system.tol2bus.pkt_count_system.cpu1.dcache.mem_side::system.l2.cpu_side      1175956                       # Packet count per connected master and slave (bytes)
system.tol2bus.pkt_count::total               2231521                       # Packet count per connected master and slave (bytes)
system.tol2bus.pkt_size_system.cpu0.icache.mem_side::system.l2.cpu_side        29888                       # Cumulative packet size per connected master and slave (bytes)
system.tol2bus.pkt_size_system.cpu0.dcache.mem_side::system.l2.cpu_side     22300864                       # Cumulative packet size per connected master and slave (bytes)
system.tol2bus.pkt_size_system.cpu1.icache.mem_side::system.l2.cpu_side       454528                       # Cumulative packet size per connected master and slave (bytes)
system.tol2bus.pkt_size_system.cpu1.dcache.mem_side::system.l2.cpu_side     39675904                       # Cumulative packet size per connected master and slave (bytes)
system.tol2bus.pkt_size::total               62461184                       # Cumulative packet size per connected master and slave (bytes)
system.tol2bus.snoops                           96632                       # Total snoops (count)
system.tol2bus.snoopTraffic                     77312                       # Total snoop traffic (bytes)
system.tol2bus.snoop_fanout::samples           840792                       # Request fanout histogram
system.tol2bus.snoop_fanout::mean            0.000584                       # Request fanout histogram
system.tol2bus.snoop_fanout::stdev           0.024158                       # Request fanout histogram
system.tol2bus.snoop_fanout::underflows             0      0.00%      0.00% # Request fanout histogram
system.tol2bus.snoop_fanout::0                 840301     99.94%     99.94% # Request fanout histogram
system.tol2bus.snoop_fanout::1                    491      0.06%    100.00% # Request fanout histogram
system.tol2bus.snoop_fanout::2                      0      0.00%    100.00% # Request fanout histogram
system.tol2bus.snoop_fanout::3                      0      0.00%    100.00% # Request fanout histogram
system.tol2bus.snoop_fanout::4                      0      0.00%    100.00% # Request fanout histogram
system.tol2bus.snoop_fanout::5                      0      0.00%    100.00% # Request fanout histogram
system.tol2bus.snoop_fanout::6                      0      0.00%    100.00% # Request fanout histogram
system.tol2bus.snoop_fanout::7                      0      0.00%    100.00% # Request fanout histogram
system.tol2bus.snoop_fanout::8                      0      0.00%    100.00% # Request fanout histogram
system.tol2bus.snoop_fanout::overflows              0      0.00%    100.00% # Request fanout histogram
system.tol2bus.snoop_fanout::min_value              0                       # Request fanout histogram
system.tol2bus.snoop_fanout::max_value              1                       # Request fanout histogram
system.tol2bus.snoop_fanout::total             840792                       # Request fanout histogram
system.tol2bus.reqLayer0.occupancy          649667349                       # Layer occupancy (ticks)
system.tol2bus.reqLayer0.utilization              1.0                       # Layer utilization (%)
system.tol2bus.respLayer5.occupancy         391596012                       # Layer occupancy (ticks)
system.tol2bus.respLayer5.utilization             0.6                       # Layer utilization (%)
system.tol2bus.respLayer4.occupancy           3803193                       # Layer occupancy (ticks)
system.tol2bus.respLayer4.utilization             0.0                       # Layer utilization (%)
system.tol2bus.respLayer1.occupancy         347788864                       # Layer occupancy (ticks)
system.tol2bus.respLayer1.utilization             0.5                       # Layer utilization (%)
system.tol2bus.respLayer0.occupancy            448551                       # Layer occupancy (ticks)
system.tol2bus.respLayer0.utilization             0.0                       # Layer utilization (%)

---------- End Simulation Statistics   ----------
