
---------- Begin Simulation Statistics ----------
final_tick                               881661810978                       # Number of ticks from beginning of simulation (restored from checkpoints and never reset)
host_inst_rate                                 380514                       # Simulator instruction rate (inst/s)
host_mem_usage                               10701692                       # Number of bytes of host memory used
host_op_rate                                   761039                       # Simulator op (including micro ops) rate (op/s)
host_seconds                                   971.49                       # Real time elapsed on the host
host_tick_rate                              907533251                       # Simulator tick rate (ticks/s)
sim_freq                                 1000000000000                       # Frequency of simulated ticks
sim_insts                                   369666602                       # Number of instructions simulated
sim_ops                                     739344080                       # Number of ops (including micro ops) simulated
sim_seconds                                  0.881662                       # Number of seconds simulated
sim_ticks                                881661810978                       # Number of ticks simulated
system.cpu.Branches                          67206299                       # Number of branches fetched
system.cpu.committedInsts                   369666602                       # Number of instructions committed
system.cpu.committedOps                     739344080                       # Number of ops (including micro ops) committed
system.cpu.dtb.rdAccesses                   134430667                       # TLB accesses on read requests
system.cpu.dtb.rdMisses                         65585                       # TLB misses on read requests
system.cpu.dtb.wrAccesses                    67242768                       # TLB accesses on write requests
system.cpu.dtb.wrMisses                            16                       # TLB misses on write requests
system.cpu.idle_fraction                     0.000000                       # Percentage of idle cycles
system.cpu.itb.rdAccesses                           0                       # TLB accesses on read requests
system.cpu.itb.rdMisses                             0                       # TLB misses on read requests
system.cpu.itb.wrAccesses                   571169792                       # TLB accesses on write requests
system.cpu.itb.wrMisses                            57                       # TLB misses on write requests
system.cpu.not_idle_fraction                 1.000000                       # Percentage of non-idle cycles
system.cpu.numCycles                       2647633066                       # number of cpu cycles simulated
system.cpu.numWorkItemsCompleted                    0                       # number of work items this cpu completed
system.cpu.numWorkItemsStarted                      0                       # number of work items this cpu started
system.cpu.num_busy_cycles               2647633065.996997                       # Number of busy cycles
system.cpu.num_cc_register_reads            168206363                       # number of times the CC registers were read
system.cpu.num_cc_register_writes           201703351                       # number of times the CC registers were written
system.cpu.num_conditional_control_insts     33617071                       # number of instructions that are conditional controls
system.cpu.num_fp_alu_accesses                   3969                       # Number of float alu accesses
system.cpu.num_fp_insts                          3969                       # number of float instructions
system.cpu.num_fp_register_reads                 5997                       # number of times the floating registers were read
system.cpu.num_fp_register_writes                3060                       # number of times the floating registers were written
system.cpu.num_func_calls                       13012                       # number of times a function call or return occured
system.cpu.num_idle_cycles                   0.003003                       # Number of idle cycles
system.cpu.num_int_alu_accesses             739334246                       # Number of integer alu accesses
system.cpu.num_int_insts                    739334246                       # number of integer instructions
system.cpu.num_int_register_reads          1411778998                       # number of times the integer registers were read
system.cpu.num_int_register_writes          604887911                       # number of times the integer registers were written
system.cpu.num_load_insts                   134430643                       # Number of load instructions
system.cpu.num_mem_refs                     201673408                       # number of memory refs
system.cpu.num_store_insts                   67242765                       # Number of store instructions
system.cpu.num_vec_alu_accesses                     0                       # Number of vector alu accesses
system.cpu.num_vec_insts                            0                       # number of vector instructions
system.cpu.num_vec_register_reads                   0                       # number of times the vector registers were read
system.cpu.num_vec_register_writes                  0                       # number of times the vector registers were written
system.cpu.op_class::No_OpClass                  7332      0.00%      0.00% # Class of executed instruction
system.cpu.op_class::IntAlu                 537658394     72.72%     72.72% # Class of executed instruction
system.cpu.op_class::IntMult                     1899      0.00%     72.72% # Class of executed instruction
system.cpu.op_class::IntDiv                       576      0.00%     72.72% # Class of executed instruction
system.cpu.op_class::FloatAdd                     247      0.00%     72.72% # Class of executed instruction
system.cpu.op_class::FloatCmp                       0      0.00%     72.72% # Class of executed instruction
system.cpu.op_class::FloatCvt                       0      0.00%     72.72% # Class of executed instruction
system.cpu.op_class::FloatMult                      0      0.00%     72.72% # Class of executed instruction
system.cpu.op_class::FloatMultAcc                   0      0.00%     72.72% # Class of executed instruction
system.cpu.op_class::FloatDiv                       0      0.00%     72.72% # Class of executed instruction
system.cpu.op_class::FloatMisc                      0      0.00%     72.72% # Class of executed instruction
system.cpu.op_class::FloatSqrt                      0      0.00%     72.72% # Class of executed instruction
system.cpu.op_class::SimdAdd                        0      0.00%     72.72% # Class of executed instruction
system.cpu.op_class::SimdAddAcc                     0      0.00%     72.72% # Class of executed instruction
system.cpu.op_class::SimdAlu                      552      0.00%     72.72% # Class of executed instruction
system.cpu.op_class::SimdCmp                        0      0.00%     72.72% # Class of executed instruction
system.cpu.op_class::SimdCvt                      506      0.00%     72.72% # Class of executed instruction
system.cpu.op_class::SimdMisc                    1166      0.00%     72.72% # Class of executed instruction
system.cpu.op_class::SimdMult                       0      0.00%     72.72% # Class of executed instruction
system.cpu.op_class::SimdMultAcc                    0      0.00%     72.72% # Class of executed instruction
system.cpu.op_class::SimdShift                      0      0.00%     72.72% # Class of executed instruction
system.cpu.op_class::SimdShiftAcc                   0      0.00%     72.72% # Class of executed instruction
system.cpu.op_class::SimdDiv                        0      0.00%     72.72% # Class of executed instruction
system.cpu.op_class::SimdSqrt                       0      0.00%     72.72% # Class of executed instruction
system.cpu.op_class::SimdFloatAdd                   0      0.00%     72.72% # Class of executed instruction
system.cpu.op_class::SimdFloatAlu                   0      0.00%     72.72% # Class of executed instruction
system.cpu.op_class::SimdFloatCmp                   0      0.00%     72.72% # Class of executed instruction
system.cpu.op_class::SimdFloatCvt                   0      0.00%     72.72% # Class of executed instruction
system.cpu.op_class::SimdFloatDiv                   0      0.00%     72.72% # Class of executed instruction
system.cpu.op_class::SimdFloatMisc                  0      0.00%     72.72% # Class of executed instruction
system.cpu.op_class::SimdFloatMult                  0      0.00%     72.72% # Class of executed instruction
system.cpu.op_class::SimdFloatMultAcc               0      0.00%     72.72% # Class of executed instruction
system.cpu.op_class::SimdFloatSqrt                  0      0.00%     72.72% # Class of executed instruction
system.cpu.op_class::SimdReduceAdd                  0      0.00%     72.72% # Class of executed instruction
system.cpu.op_class::SimdReduceAlu                  0      0.00%     72.72% # Class of executed instruction
system.cpu.op_class::SimdReduceCmp                  0      0.00%     72.72% # Class of executed instruction
system.cpu.op_class::SimdFloatReduceAdd             0      0.00%     72.72% # Class of executed instruction
system.cpu.op_class::SimdFloatReduceCmp             0      0.00%     72.72% # Class of executed instruction
system.cpu.op_class::SimdAes                        0      0.00%     72.72% # Class of executed instruction
system.cpu.op_class::SimdAesMix                     0      0.00%     72.72% # Class of executed instruction
system.cpu.op_class::SimdSha1Hash                   0      0.00%     72.72% # Class of executed instruction
system.cpu.op_class::SimdSha1Hash2                  0      0.00%     72.72% # Class of executed instruction
system.cpu.op_class::SimdSha256Hash                 0      0.00%     72.72% # Class of executed instruction
system.cpu.op_class::SimdSha256Hash2                0      0.00%     72.72% # Class of executed instruction
system.cpu.op_class::SimdShaSigma2                  0      0.00%     72.72% # Class of executed instruction
system.cpu.op_class::SimdShaSigma3                  0      0.00%     72.72% # Class of executed instruction
system.cpu.op_class::SimdPredAlu                    0      0.00%     72.72% # Class of executed instruction
system.cpu.op_class::MemRead                134430241     18.18%     90.91% # Class of executed instruction
system.cpu.op_class::MemWrite                67242134      9.09%    100.00% # Class of executed instruction
system.cpu.op_class::FloatMemRead                 402      0.00%    100.00% # Class of executed instruction
system.cpu.op_class::FloatMemWrite                631      0.00%    100.00% # Class of executed instruction
system.cpu.op_class::IprAccess                      0      0.00%    100.00% # Class of executed instruction
system.cpu.op_class::InstPrefetch                   0      0.00%    100.00% # Class of executed instruction
system.cpu.op_class::total                  739344080                       # Class of executed instruction
system.cpu.workload.numSyscalls                    16                       # Number of system calls
system.membus.snoop_filter.hit_multi_requests            0                       # Number of requests hitting in the snoop filter with multiple (>1) holders of the requested data.
system.membus.snoop_filter.hit_multi_snoops            0                       # Number of snoops hitting in the snoop filter with multiple (>1) holders of the requested data.
system.membus.snoop_filter.hit_single_requests      3913408                       # Number of requests hitting in the snoop filter with a single holder of the requested data.
system.membus.snoop_filter.hit_single_snoops            0                       # Number of snoops hitting in the snoop filter with a single holder of the requested data.
system.membus.snoop_filter.tot_requests       8089364                       # Total number of requests made to the snoop filter.
system.membus.snoop_filter.tot_snoops               0                       # Total number of snoops made to the snoop filter.
system.tol2bus.snoop_filter.hit_multi_requests            0                       # Number of requests hitting in the snoop filter with multiple (>1) holders of the requested data.
system.tol2bus.snoop_filter.hit_multi_snoops            0                       # Number of snoops hitting in the snoop filter with multiple (>1) holders of the requested data.
system.tol2bus.snoop_filter.hit_single_requests      4199492                       # Number of requests hitting in the snoop filter with a single holder of the requested data.
system.tol2bus.snoop_filter.hit_single_snoops          709                       # Number of snoops hitting in the snoop filter with a single holder of the requested data.
system.tol2bus.snoop_filter.tot_requests      8399496                       # Total number of requests made to the snoop filter.
system.tol2bus.snoop_filter.tot_snoops            709                       # Total number of snoops made to the snoop filter.
system.membus.pwrStateResidencyTicks::UNDEFINED 881661810978                       # Cumulative time (in ticks) in various power states
system.membus.trans_dist::ReadResp            4175642                       # Transaction distribution
system.membus.trans_dist::WritebackDirty          322                       # Transaction distribution
system.membus.trans_dist::CleanEvict          3913086                       # Transaction distribution
system.membus.trans_dist::ReadExReq               314                       # Transaction distribution
system.membus.trans_dist::ReadExResp              314                       # Transaction distribution
system.membus.trans_dist::ReadSharedReq       4175642                       # Transaction distribution
system.membus.pkt_count_system.l2.mem_side::system.mem_ctrls.port     12265320                       # Packet count per connected master and slave (bytes)
system.membus.pkt_count_system.l2.mem_side::total     12265320                       # Packet count per connected master and slave (bytes)
system.membus.pkt_count::total               12265320                       # Packet count per connected master and slave (bytes)
system.membus.pkt_size_system.l2.mem_side::system.mem_ctrls.port    267281792                       # Cumulative packet size per connected master and slave (bytes)
system.membus.pkt_size_system.l2.mem_side::total    267281792                       # Cumulative packet size per connected master and slave (bytes)
system.membus.pkt_size::total               267281792                       # Cumulative packet size per connected master and slave (bytes)
system.membus.snoops                                0                       # Total snoops (count)
system.membus.snoopTraffic                          0                       # Total snoop traffic (bytes)
system.membus.snoop_fanout::samples           4175956                       # Request fanout histogram
system.membus.snoop_fanout::mean                    0                       # Request fanout histogram
system.membus.snoop_fanout::stdev                   0                       # Request fanout histogram
system.membus.snoop_fanout::underflows              0      0.00%      0.00% # Request fanout histogram
system.membus.snoop_fanout::0                 4175956    100.00%    100.00% # Request fanout histogram
system.membus.snoop_fanout::1                       0      0.00%    100.00% # Request fanout histogram
system.membus.snoop_fanout::overflows               0      0.00%    100.00% # Request fanout histogram
system.membus.snoop_fanout::min_value               0                       # Request fanout histogram
system.membus.snoop_fanout::max_value               0                       # Request fanout histogram
system.membus.snoop_fanout::total             4175956                       # Request fanout histogram
system.membus.reqLayer2.occupancy         13735986948                       # Layer occupancy (ticks)
system.membus.reqLayer2.utilization               1.6                       # Layer utilization (%)
system.membus.respLayer1.occupancy        22350765251                       # Layer occupancy (ticks)
system.membus.respLayer1.utilization              2.5                       # Layer utilization (%)
system.tol2bus.pwrStateResidencyTicks::UNDEFINED 881661810978                       # Cumulative time (in ticks) in various power states
system.tol2bus.trans_dist::ReadResp           4198716                       # Transaction distribution
system.tol2bus.trans_dist::WritebackDirty         3161                       # Transaction distribution
system.tol2bus.trans_dist::WritebackClean          212                       # Transaction distribution
system.tol2bus.trans_dist::CleanEvict         8110105                       # Transaction distribution
system.tol2bus.trans_dist::ReadExReq             1288                       # Transaction distribution
system.tol2bus.trans_dist::ReadExResp            1288                       # Transaction distribution
system.tol2bus.trans_dist::ReadCleanReq           716                       # Transaction distribution
system.tol2bus.trans_dist::ReadSharedReq      4198000                       # Transaction distribution
system.tol2bus.pkt_count_system.cpu.icache.mem_side::system.l2.cpu_side         1644                       # Packet count per connected master and slave (bytes)
system.tol2bus.pkt_count_system.cpu.dcache.mem_side::system.l2.cpu_side     12597856                       # Packet count per connected master and slave (bytes)
system.tol2bus.pkt_count::total              12599500                       # Packet count per connected master and slave (bytes)
system.tol2bus.pkt_size_system.cpu.icache.mem_side::system.l2.cpu_side        59392                       # Cumulative packet size per connected master and slave (bytes)
system.tol2bus.pkt_size_system.cpu.dcache.mem_side::system.l2.cpu_side    268936128                       # Cumulative packet size per connected master and slave (bytes)
system.tol2bus.pkt_size::total              268995520                       # Cumulative packet size per connected master and slave (bytes)
system.tol2bus.snoops                         3913986                       # Total snoops (count)
system.tol2bus.snoopTraffic                     20608                       # Total snoop traffic (bytes)
system.tol2bus.snoop_fanout::samples          8113990                       # Request fanout histogram
system.tol2bus.snoop_fanout::mean            0.000087                       # Request fanout histogram
system.tol2bus.snoop_fanout::stdev           0.009347                       # Request fanout histogram
system.tol2bus.snoop_fanout::underflows             0      0.00%      0.00% # Request fanout histogram
system.tol2bus.snoop_fanout::0                8113281     99.99%     99.99% # Request fanout histogram
system.tol2bus.snoop_fanout::1                    709      0.01%    100.00% # Request fanout histogram
system.tol2bus.snoop_fanout::2                      0      0.00%    100.00% # Request fanout histogram
system.tol2bus.snoop_fanout::3                      0      0.00%    100.00% # Request fanout histogram
system.tol2bus.snoop_fanout::4                      0      0.00%    100.00% # Request fanout histogram
system.tol2bus.snoop_fanout::overflows              0      0.00%    100.00% # Request fanout histogram
system.tol2bus.snoop_fanout::min_value              0                       # Request fanout histogram
system.tol2bus.snoop_fanout::max_value              1                       # Request fanout histogram
system.tol2bus.snoop_fanout::total            8113990                       # Request fanout histogram
system.tol2bus.reqLayer0.occupancy         2799064134                       # Layer occupancy (ticks)
system.tol2bus.reqLayer0.utilization              0.3                       # Layer utilization (%)
system.tol2bus.respLayer1.occupancy        4195088712                       # Layer occupancy (ticks)
system.tol2bus.respLayer1.utilization             0.5                       # Layer utilization (%)
system.tol2bus.respLayer0.occupancy            715284                       # Layer occupancy (ticks)
system.tol2bus.respLayer0.utilization             0.0                       # Layer utilization (%)
system.voltage_domain.voltage                       1                       # Voltage in Volts
system.clk_domain.clock                          1000                       # Clock period in ticks
system.l2.pwrStateResidencyTicks::UNDEFINED 881661810978                       # Cumulative time (in ticks) in various power states
system.l2.demand_hits::.cpu.data                24048                       # number of demand (read+write) hits
system.l2.demand_hits::total                    24048                       # number of demand (read+write) hits
system.l2.overall_hits::.cpu.data               24048                       # number of overall hits
system.l2.overall_hits::total                   24048                       # number of overall hits
system.l2.demand_misses::.cpu.inst                716                       # number of demand (read+write) misses
system.l2.demand_misses::.cpu.data            4175240                       # number of demand (read+write) misses
system.l2.demand_misses::total                4175956                       # number of demand (read+write) misses
system.l2.overall_misses::.cpu.inst               716                       # number of overall misses
system.l2.overall_misses::.cpu.data           4175240                       # number of overall misses
system.l2.overall_misses::total               4175956                       # number of overall misses
system.l2.demand_miss_latency::.cpu.inst     59838102                       # number of demand (read+write) miss cycles
system.l2.demand_miss_latency::.cpu.data 362467143027                       # number of demand (read+write) miss cycles
system.l2.demand_miss_latency::total     362526981129                       # number of demand (read+write) miss cycles
system.l2.overall_miss_latency::.cpu.inst     59838102                       # number of overall miss cycles
system.l2.overall_miss_latency::.cpu.data 362467143027                       # number of overall miss cycles
system.l2.overall_miss_latency::total    362526981129                       # number of overall miss cycles
system.l2.demand_accesses::.cpu.inst              716                       # number of demand (read+write) accesses
system.l2.demand_accesses::.cpu.data          4199288                       # number of demand (read+write) accesses
system.l2.demand_accesses::total              4200004                       # number of demand (read+write) accesses
system.l2.overall_accesses::.cpu.inst             716                       # number of overall (read+write) accesses
system.l2.overall_accesses::.cpu.data         4199288                       # number of overall (read+write) accesses
system.l2.overall_accesses::total             4200004                       # number of overall (read+write) accesses
system.l2.demand_miss_rate::.cpu.inst               1                       # miss rate for demand accesses
system.l2.demand_miss_rate::.cpu.data        0.994273                       # miss rate for demand accesses
system.l2.demand_miss_rate::total            0.994274                       # miss rate for demand accesses
system.l2.overall_miss_rate::.cpu.inst              1                       # miss rate for overall accesses
system.l2.overall_miss_rate::.cpu.data       0.994273                       # miss rate for overall accesses
system.l2.overall_miss_rate::total           0.994274                       # miss rate for overall accesses
system.l2.demand_avg_miss_latency::.cpu.inst 83572.768156                       # average overall miss latency
system.l2.demand_avg_miss_latency::.cpu.data 86813.486896                       # average overall miss latency
system.l2.demand_avg_miss_latency::total 86812.931250                       # average overall miss latency
system.l2.overall_avg_miss_latency::.cpu.inst 83572.768156                       # average overall miss latency
system.l2.overall_avg_miss_latency::.cpu.data 86813.486896                       # average overall miss latency
system.l2.overall_avg_miss_latency::total 86812.931250                       # average overall miss latency
system.l2.blocked_cycles::no_mshrs                  0                       # number of cycles access was blocked
system.l2.blocked_cycles::no_targets                0                       # number of cycles access was blocked
system.l2.blocked::no_mshrs                         0                       # number of cycles access was blocked
system.l2.blocked::no_targets                       0                       # number of cycles access was blocked
system.l2.avg_blocked_cycles::no_mshrs            nan                       # average number of cycles each access was blocked
system.l2.avg_blocked_cycles::no_targets          nan                       # average number of cycles each access was blocked
system.l2.writebacks::.writebacks                 322                       # number of writebacks
system.l2.writebacks::total                       322                       # number of writebacks
system.l2.demand_mshr_misses::.cpu.inst           716                       # number of demand (read+write) MSHR misses
system.l2.demand_mshr_misses::.cpu.data       4175240                       # number of demand (read+write) MSHR misses
system.l2.demand_mshr_misses::total           4175956                       # number of demand (read+write) MSHR misses
system.l2.overall_mshr_misses::.cpu.inst          716                       # number of overall MSHR misses
system.l2.overall_mshr_misses::.cpu.data      4175240                       # number of overall MSHR misses
system.l2.overall_mshr_misses::total          4175956                       # number of overall MSHR misses
system.l2.demand_mshr_miss_latency::.cpu.inst     54948986                       # number of demand (read+write) MSHR miss cycles
system.l2.demand_mshr_miss_latency::.cpu.data 333964740741                       # number of demand (read+write) MSHR miss cycles
system.l2.demand_mshr_miss_latency::total 334019689727                       # number of demand (read+write) MSHR miss cycles
system.l2.overall_mshr_miss_latency::.cpu.inst     54948986                       # number of overall MSHR miss cycles
system.l2.overall_mshr_miss_latency::.cpu.data 333964740741                       # number of overall MSHR miss cycles
system.l2.overall_mshr_miss_latency::total 334019689727                       # number of overall MSHR miss cycles
system.l2.demand_mshr_miss_rate::.cpu.inst            1                       # mshr miss rate for demand accesses
system.l2.demand_mshr_miss_rate::.cpu.data     0.994273                       # mshr miss rate for demand accesses
system.l2.demand_mshr_miss_rate::total       0.994274                       # mshr miss rate for demand accesses
system.l2.overall_mshr_miss_rate::.cpu.inst            1                       # mshr miss rate for overall accesses
system.l2.overall_mshr_miss_rate::.cpu.data     0.994273                       # mshr miss rate for overall accesses
system.l2.overall_mshr_miss_rate::total      0.994274                       # mshr miss rate for overall accesses
system.l2.demand_avg_mshr_miss_latency::.cpu.inst 76744.393855                       # average overall mshr miss latency
system.l2.demand_avg_mshr_miss_latency::.cpu.data 79986.956616                       # average overall mshr miss latency
system.l2.demand_avg_mshr_miss_latency::total 79986.400653                       # average overall mshr miss latency
system.l2.overall_avg_mshr_miss_latency::.cpu.inst 76744.393855                       # average overall mshr miss latency
system.l2.overall_avg_mshr_miss_latency::.cpu.data 79986.956616                       # average overall mshr miss latency
system.l2.overall_avg_mshr_miss_latency::total 79986.400653                       # average overall mshr miss latency
system.l2.replacements                        3913986                       # number of replacements
system.l2.WritebackDirty_hits::.writebacks         2839                       # number of WritebackDirty hits
system.l2.WritebackDirty_hits::total             2839                       # number of WritebackDirty hits
system.l2.WritebackDirty_accesses::.writebacks         2839                       # number of WritebackDirty accesses(hits+misses)
system.l2.WritebackDirty_accesses::total         2839                       # number of WritebackDirty accesses(hits+misses)
system.l2.WritebackClean_hits::.writebacks          212                       # number of WritebackClean hits
system.l2.WritebackClean_hits::total              212                       # number of WritebackClean hits
system.l2.WritebackClean_accesses::.writebacks          212                       # number of WritebackClean accesses(hits+misses)
system.l2.WritebackClean_accesses::total          212                       # number of WritebackClean accesses(hits+misses)
system.l2.CleanEvict_mshr_misses::.writebacks          132                       # number of CleanEvict MSHR misses
system.l2.CleanEvict_mshr_misses::total           132                       # number of CleanEvict MSHR misses
system.l2.CleanEvict_mshr_miss_rate::.writebacks          inf                       # mshr miss rate for CleanEvict accesses
system.l2.CleanEvict_mshr_miss_rate::total          inf                       # mshr miss rate for CleanEvict accesses
system.l2.ReadExReq_hits::.cpu.data               974                       # number of ReadExReq hits
system.l2.ReadExReq_hits::total                   974                       # number of ReadExReq hits
system.l2.ReadExReq_misses::.cpu.data             314                       # number of ReadExReq misses
system.l2.ReadExReq_misses::total                 314                       # number of ReadExReq misses
system.l2.ReadExReq_miss_latency::.cpu.data     25567407                       # number of ReadExReq miss cycles
system.l2.ReadExReq_miss_latency::total      25567407                       # number of ReadExReq miss cycles
system.l2.ReadExReq_accesses::.cpu.data          1288                       # number of ReadExReq accesses(hits+misses)
system.l2.ReadExReq_accesses::total              1288                       # number of ReadExReq accesses(hits+misses)
system.l2.ReadExReq_miss_rate::.cpu.data     0.243789                       # miss rate for ReadExReq accesses
system.l2.ReadExReq_miss_rate::total         0.243789                       # miss rate for ReadExReq accesses
system.l2.ReadExReq_avg_miss_latency::.cpu.data 81424.863057                       # average ReadExReq miss latency
system.l2.ReadExReq_avg_miss_latency::total 81424.863057                       # average ReadExReq miss latency
system.l2.ReadExReq_mshr_misses::.cpu.data          314                       # number of ReadExReq MSHR misses
system.l2.ReadExReq_mshr_misses::total            314                       # number of ReadExReq MSHR misses
system.l2.ReadExReq_mshr_miss_latency::.cpu.data     23423881                       # number of ReadExReq MSHR miss cycles
system.l2.ReadExReq_mshr_miss_latency::total     23423881                       # number of ReadExReq MSHR miss cycles
system.l2.ReadExReq_mshr_miss_rate::.cpu.data     0.243789                       # mshr miss rate for ReadExReq accesses
system.l2.ReadExReq_mshr_miss_rate::total     0.243789                       # mshr miss rate for ReadExReq accesses
system.l2.ReadExReq_avg_mshr_miss_latency::.cpu.data 74598.347134                       # average ReadExReq mshr miss latency
system.l2.ReadExReq_avg_mshr_miss_latency::total 74598.347134                       # average ReadExReq mshr miss latency
system.l2.ReadCleanReq_misses::.cpu.inst          716                       # number of ReadCleanReq misses
system.l2.ReadCleanReq_misses::total              716                       # number of ReadCleanReq misses
system.l2.ReadCleanReq_miss_latency::.cpu.inst     59838102                       # number of ReadCleanReq miss cycles
system.l2.ReadCleanReq_miss_latency::total     59838102                       # number of ReadCleanReq miss cycles
system.l2.ReadCleanReq_accesses::.cpu.inst          716                       # number of ReadCleanReq accesses(hits+misses)
system.l2.ReadCleanReq_accesses::total            716                       # number of ReadCleanReq accesses(hits+misses)
system.l2.ReadCleanReq_miss_rate::.cpu.inst            1                       # miss rate for ReadCleanReq accesses
system.l2.ReadCleanReq_miss_rate::total             1                       # miss rate for ReadCleanReq accesses
system.l2.ReadCleanReq_avg_miss_latency::.cpu.inst 83572.768156                       # average ReadCleanReq miss latency
system.l2.ReadCleanReq_avg_miss_latency::total 83572.768156                       # average ReadCleanReq miss latency
system.l2.ReadCleanReq_mshr_misses::.cpu.inst          716                       # number of ReadCleanReq MSHR misses
system.l2.ReadCleanReq_mshr_misses::total          716                       # number of ReadCleanReq MSHR misses
system.l2.ReadCleanReq_mshr_miss_latency::.cpu.inst     54948986                       # number of ReadCleanReq MSHR miss cycles
system.l2.ReadCleanReq_mshr_miss_latency::total     54948986                       # number of ReadCleanReq MSHR miss cycles
system.l2.ReadCleanReq_mshr_miss_rate::.cpu.inst            1                       # mshr miss rate for ReadCleanReq accesses
system.l2.ReadCleanReq_mshr_miss_rate::total            1                       # mshr miss rate for ReadCleanReq accesses
system.l2.ReadCleanReq_avg_mshr_miss_latency::.cpu.inst 76744.393855                       # average ReadCleanReq mshr miss latency
system.l2.ReadCleanReq_avg_mshr_miss_latency::total 76744.393855                       # average ReadCleanReq mshr miss latency
system.l2.ReadSharedReq_hits::.cpu.data         23074                       # number of ReadSharedReq hits
system.l2.ReadSharedReq_hits::total             23074                       # number of ReadSharedReq hits
system.l2.ReadSharedReq_misses::.cpu.data      4174926                       # number of ReadSharedReq misses
system.l2.ReadSharedReq_misses::total         4174926                       # number of ReadSharedReq misses
system.l2.ReadSharedReq_miss_latency::.cpu.data 362441575620                       # number of ReadSharedReq miss cycles
system.l2.ReadSharedReq_miss_latency::total 362441575620                       # number of ReadSharedReq miss cycles
system.l2.ReadSharedReq_accesses::.cpu.data      4198000                       # number of ReadSharedReq accesses(hits+misses)
system.l2.ReadSharedReq_accesses::total       4198000                       # number of ReadSharedReq accesses(hits+misses)
system.l2.ReadSharedReq_miss_rate::.cpu.data     0.994504                       # miss rate for ReadSharedReq accesses
system.l2.ReadSharedReq_miss_rate::total     0.994504                       # miss rate for ReadSharedReq accesses
system.l2.ReadSharedReq_avg_miss_latency::.cpu.data 86813.892179                       # average ReadSharedReq miss latency
system.l2.ReadSharedReq_avg_miss_latency::total 86813.892179                       # average ReadSharedReq miss latency
system.l2.ReadSharedReq_mshr_misses::.cpu.data      4174926                       # number of ReadSharedReq MSHR misses
system.l2.ReadSharedReq_mshr_misses::total      4174926                       # number of ReadSharedReq MSHR misses
system.l2.ReadSharedReq_mshr_miss_latency::.cpu.data 333941316860                       # number of ReadSharedReq MSHR miss cycles
system.l2.ReadSharedReq_mshr_miss_latency::total 333941316860                       # number of ReadSharedReq MSHR miss cycles
system.l2.ReadSharedReq_mshr_miss_rate::.cpu.data     0.994504                       # mshr miss rate for ReadSharedReq accesses
system.l2.ReadSharedReq_mshr_miss_rate::total     0.994504                       # mshr miss rate for ReadSharedReq accesses
system.l2.ReadSharedReq_avg_mshr_miss_latency::.cpu.data 79987.361898                       # average ReadSharedReq mshr miss latency
system.l2.ReadSharedReq_avg_mshr_miss_latency::total 79987.361898                       # average ReadSharedReq mshr miss latency
system.l2.tags.pwrStateResidencyTicks::UNDEFINED 881661810978                       # Cumulative time (in ticks) in various power states
system.l2.tags.tagsinuse                 253287.589331                       # Cycle average of tags in use
system.l2.tags.total_refs                     8399364                       # Total number of references to valid blocks.
system.l2.tags.sampled_refs                   4176130                       # Sample count of references to valid blocks.
system.l2.tags.avg_refs                      2.011279                       # Average number of references to valid blocks.
system.l2.tags.warmup_cycle                     76000                       # Cycle when the warmup percentage was hit.
system.l2.tags.occ_blocks::.writebacks       5.814176                       # Average occupied blocks per requestor
system.l2.tags.occ_blocks::.cpu.inst        69.498145                       # Average occupied blocks per requestor
system.l2.tags.occ_blocks::.cpu.data     253212.277010                       # Average occupied blocks per requestor
system.l2.tags.occ_percent::.writebacks      0.000022                       # Average percentage of cache occupancy
system.l2.tags.occ_percent::.cpu.inst        0.000265                       # Average percentage of cache occupancy
system.l2.tags.occ_percent::.cpu.data        0.965928                       # Average percentage of cache occupancy
system.l2.tags.occ_percent::total            0.966215                       # Average percentage of cache occupancy
system.l2.tags.occ_task_id_blocks::1024        262144                       # Occupied blocks per task id
system.l2.tags.age_task_id_blocks_1024::0          164                       # Occupied blocks per task id
system.l2.tags.age_task_id_blocks_1024::1          257                       # Occupied blocks per task id
system.l2.tags.age_task_id_blocks_1024::2         4322                       # Occupied blocks per task id
system.l2.tags.age_task_id_blocks_1024::3        39371                       # Occupied blocks per task id
system.l2.tags.age_task_id_blocks_1024::4       218030                       # Occupied blocks per task id
system.l2.tags.occ_task_id_percent::1024            1                       # Percentage of cache occupancy per task id
system.l2.tags.tag_accesses                 138568066                       # Number of tag accesses
system.l2.tags.data_accesses                138568066                       # Number of data accesses
system.l2.tags.repl_invalid                         0                       # Number of initial replacements
system.l2.tags.repl_valid_tag                       0                       # Number of local replacements
system.l2.tags.repl_valid_data                      0                       # Number of global replacements
system.cpu_voltage_domain.voltage                   1                       # Voltage in Volts
system.mem_ctrls.pwrStateResidencyTicks::UNDEFINED 881661810978                       # Cumulative time (in ticks) in various power states
system.mem_ctrls.bytes_read::.cpu.inst          45824                       # Number of bytes read from this memory
system.mem_ctrls.bytes_read::.cpu.data      267215360                       # Number of bytes read from this memory
system.mem_ctrls.bytes_read::total          267261184                       # Number of bytes read from this memory
system.mem_ctrls.bytes_inst_read::.cpu.inst        45824                       # Number of instructions bytes read from this memory
system.mem_ctrls.bytes_inst_read::total         45824                       # Number of instructions bytes read from this memory
system.mem_ctrls.bytes_written::.writebacks        20608                       # Number of bytes written to this memory
system.mem_ctrls.bytes_written::total           20608                       # Number of bytes written to this memory
system.mem_ctrls.num_reads::.cpu.inst             716                       # Number of read requests responded to by this memory
system.mem_ctrls.num_reads::.cpu.data         4175240                       # Number of read requests responded to by this memory
system.mem_ctrls.num_reads::total             4175956                       # Number of read requests responded to by this memory
system.mem_ctrls.num_writes::.writebacks          322                       # Number of write requests responded to by this memory
system.mem_ctrls.num_writes::total                322                       # Number of write requests responded to by this memory
system.mem_ctrls.bw_read::.cpu.inst             51975                       # Total read bandwidth from this memory (bytes/s)
system.mem_ctrls.bw_read::.cpu.data         303081473                       # Total read bandwidth from this memory (bytes/s)
system.mem_ctrls.bw_read::total             303133447                       # Total read bandwidth from this memory (bytes/s)
system.mem_ctrls.bw_inst_read::.cpu.inst        51975                       # Instruction read bandwidth from this memory (bytes/s)
system.mem_ctrls.bw_inst_read::total            51975                       # Instruction read bandwidth from this memory (bytes/s)
system.mem_ctrls.bw_write::.writebacks          23374                       # Write bandwidth from this memory (bytes/s)
system.mem_ctrls.bw_write::total                23374                       # Write bandwidth from this memory (bytes/s)
system.mem_ctrls.bw_total::.writebacks          23374                       # Total bandwidth to/from this memory (bytes/s)
system.mem_ctrls.bw_total::.cpu.inst            51975                       # Total bandwidth to/from this memory (bytes/s)
system.mem_ctrls.bw_total::.cpu.data        303081473                       # Total bandwidth to/from this memory (bytes/s)
system.mem_ctrls.bw_total::total            303156821                       # Total bandwidth to/from this memory (bytes/s)
system.mem_ctrls.avgPriority_.writebacks::samples       319.00                       # Average QoS priority value for accepted requests
system.mem_ctrls.avgPriority_.cpu.inst::samples       716.00                       # Average QoS priority value for accepted requests
system.mem_ctrls.avgPriority_.cpu.data::samples   4175205.00                       # Average QoS priority value for accepted requests
system.mem_ctrls.priorityMinLatency      0.000000031652                       # per QoS priority minimum request to response latency (s)
system.mem_ctrls.priorityMaxLatency      1.303183537658                       # per QoS priority maximum request to response latency (s)
system.mem_ctrls.numReadWriteTurnArounds           15                       # Number of turnarounds from READ to WRITE
system.mem_ctrls.numWriteReadTurnArounds           15                       # Number of turnarounds from WRITE to READ
system.mem_ctrls.numStayReadState             8578642                       # Number of times bus staying in READ state
system.mem_ctrls.numStayWriteState                255                       # Number of times bus staying in WRITE state
system.mem_ctrls.readReqs                     4175956                       # Number of read requests accepted
system.mem_ctrls.writeReqs                        322                       # Number of write requests accepted
system.mem_ctrls.readBursts                   4175956                       # Number of DRAM read bursts, including those serviced by the write queue
system.mem_ctrls.writeBursts                      322                       # Number of DRAM write bursts, including those merged in the write queue
system.mem_ctrls.servicedByWrQ                     35                       # Number of DRAM read bursts serviced by the write queue
system.mem_ctrls.mergedWrBursts                     3                       # Number of DRAM write bursts merged with an existing one
system.mem_ctrls.neitherReadNorWriteReqs            0                       # Number of requests that are neither read nor write
system.mem_ctrls.perBankRdBursts::0            130470                       # Per bank write bursts
system.mem_ctrls.perBankRdBursts::1            130483                       # Per bank write bursts
system.mem_ctrls.perBankRdBursts::2            130485                       # Per bank write bursts
system.mem_ctrls.perBankRdBursts::3            130506                       # Per bank write bursts
system.mem_ctrls.perBankRdBursts::4            130570                       # Per bank write bursts
system.mem_ctrls.perBankRdBursts::5            130486                       # Per bank write bursts
system.mem_ctrls.perBankRdBursts::6            130466                       # Per bank write bursts
system.mem_ctrls.perBankRdBursts::7            130505                       # Per bank write bursts
system.mem_ctrls.perBankRdBursts::8            130541                       # Per bank write bursts
system.mem_ctrls.perBankRdBursts::9            130486                       # Per bank write bursts
system.mem_ctrls.perBankRdBursts::10           130488                       # Per bank write bursts
system.mem_ctrls.perBankRdBursts::11           130467                       # Per bank write bursts
system.mem_ctrls.perBankRdBursts::12           130484                       # Per bank write bursts
system.mem_ctrls.perBankRdBursts::13           130518                       # Per bank write bursts
system.mem_ctrls.perBankRdBursts::14           130489                       # Per bank write bursts
system.mem_ctrls.perBankRdBursts::15           130519                       # Per bank write bursts
system.mem_ctrls.perBankRdBursts::16           130510                       # Per bank write bursts
system.mem_ctrls.perBankRdBursts::17           130444                       # Per bank write bursts
system.mem_ctrls.perBankRdBursts::18           130505                       # Per bank write bursts
system.mem_ctrls.perBankRdBursts::19           130512                       # Per bank write bursts
system.mem_ctrls.perBankRdBursts::20           130483                       # Per bank write bursts
system.mem_ctrls.perBankRdBursts::21           130517                       # Per bank write bursts
system.mem_ctrls.perBankRdBursts::22           130501                       # Per bank write bursts
system.mem_ctrls.perBankRdBursts::23           130527                       # Per bank write bursts
system.mem_ctrls.perBankRdBursts::24           130439                       # Per bank write bursts
system.mem_ctrls.perBankRdBursts::25           130490                       # Per bank write bursts
system.mem_ctrls.perBankRdBursts::26           130498                       # Per bank write bursts
system.mem_ctrls.perBankRdBursts::27           130538                       # Per bank write bursts
system.mem_ctrls.perBankRdBursts::28           130496                       # Per bank write bursts
system.mem_ctrls.perBankRdBursts::29           130489                       # Per bank write bursts
system.mem_ctrls.perBankRdBursts::30           130510                       # Per bank write bursts
system.mem_ctrls.perBankRdBursts::31           130499                       # Per bank write bursts
system.mem_ctrls.perBankWrBursts::0                11                       # Per bank write bursts
system.mem_ctrls.perBankWrBursts::1                11                       # Per bank write bursts
system.mem_ctrls.perBankWrBursts::2                10                       # Per bank write bursts
system.mem_ctrls.perBankWrBursts::3                 9                       # Per bank write bursts
system.mem_ctrls.perBankWrBursts::4                 9                       # Per bank write bursts
system.mem_ctrls.perBankWrBursts::5                 9                       # Per bank write bursts
system.mem_ctrls.perBankWrBursts::6                 8                       # Per bank write bursts
system.mem_ctrls.perBankWrBursts::7                 9                       # Per bank write bursts
system.mem_ctrls.perBankWrBursts::8                 8                       # Per bank write bursts
system.mem_ctrls.perBankWrBursts::9                10                       # Per bank write bursts
system.mem_ctrls.perBankWrBursts::10               11                       # Per bank write bursts
system.mem_ctrls.perBankWrBursts::11                8                       # Per bank write bursts
system.mem_ctrls.perBankWrBursts::12               10                       # Per bank write bursts
system.mem_ctrls.perBankWrBursts::13                8                       # Per bank write bursts
system.mem_ctrls.perBankWrBursts::14                9                       # Per bank write bursts
system.mem_ctrls.perBankWrBursts::15                8                       # Per bank write bursts
system.mem_ctrls.perBankWrBursts::16               10                       # Per bank write bursts
system.mem_ctrls.perBankWrBursts::17                9                       # Per bank write bursts
system.mem_ctrls.perBankWrBursts::18                7                       # Per bank write bursts
system.mem_ctrls.perBankWrBursts::19                9                       # Per bank write bursts
system.mem_ctrls.perBankWrBursts::20                8                       # Per bank write bursts
system.mem_ctrls.perBankWrBursts::21                6                       # Per bank write bursts
system.mem_ctrls.perBankWrBursts::22                6                       # Per bank write bursts
system.mem_ctrls.perBankWrBursts::23                7                       # Per bank write bursts
system.mem_ctrls.perBankWrBursts::24                8                       # Per bank write bursts
system.mem_ctrls.perBankWrBursts::25                7                       # Per bank write bursts
system.mem_ctrls.perBankWrBursts::26                7                       # Per bank write bursts
system.mem_ctrls.perBankWrBursts::27                8                       # Per bank write bursts
system.mem_ctrls.perBankWrBursts::28                6                       # Per bank write bursts
system.mem_ctrls.perBankWrBursts::29                8                       # Per bank write bursts
system.mem_ctrls.perBankWrBursts::30                8                       # Per bank write bursts
system.mem_ctrls.perBankWrBursts::31                8                       # Per bank write bursts
system.mem_ctrls.avgRdQLen                       1.00                       # Average read queue length when enqueuing
system.mem_ctrls.avgWrQLen                      53.85                       # Average write queue length when enqueuing
system.mem_ctrls.totQLat                  92829851623                       # Total ticks spent queuing
system.mem_ctrls.totBusLat                13914168772                       # Total ticks spent in databus transfers
system.mem_ctrls.totMemAccLat            165875061755                       # Total ticks spent from burst creation until serviced by the DRAM
system.mem_ctrls.avgQLat                     22229.79                       # Average queueing delay per DRAM burst
system.mem_ctrls.avgBusLat                    3332.00                       # Average bus latency per DRAM burst
system.mem_ctrls.avgMemAccLat                39721.79                       # Average memory access latency per DRAM burst
system.mem_ctrls.numRdRetry                         0                       # Number of times read queue was full causing retry
system.mem_ctrls.numWrRetry                         0                       # Number of times write queue was full causing retry
system.mem_ctrls.readRowHits                        0                       # Number of row buffer hits during reads
system.mem_ctrls.writeRowHits                       0                       # Number of row buffer hits during writes
system.mem_ctrls.readRowHitRate                  0.00                       # Row buffer hit rate for reads
system.mem_ctrls.writeRowHitRate                 0.00                       # Row buffer hit rate for writes
system.mem_ctrls.readPktSize::0                     0                       # Read request sizes (log2)
system.mem_ctrls.readPktSize::1                     0                       # Read request sizes (log2)
system.mem_ctrls.readPktSize::2                     0                       # Read request sizes (log2)
system.mem_ctrls.readPktSize::3                     0                       # Read request sizes (log2)
system.mem_ctrls.readPktSize::4                     0                       # Read request sizes (log2)
system.mem_ctrls.readPktSize::5                     0                       # Read request sizes (log2)
system.mem_ctrls.readPktSize::6               4175956                       # Read request sizes (log2)
system.mem_ctrls.writePktSize::0                    0                       # Write request sizes (log2)
system.mem_ctrls.writePktSize::1                    0                       # Write request sizes (log2)
system.mem_ctrls.writePktSize::2                    0                       # Write request sizes (log2)
system.mem_ctrls.writePktSize::3                    0                       # Write request sizes (log2)
system.mem_ctrls.writePktSize::4                    0                       # Write request sizes (log2)
system.mem_ctrls.writePktSize::5                    0                       # Write request sizes (log2)
system.mem_ctrls.writePktSize::6                  322                       # Write request sizes (log2)
system.mem_ctrls.rdQLenPdf::0                 4175920                       # What read queue length does an incoming req see
system.mem_ctrls.rdQLenPdf::1                       1                       # What read queue length does an incoming req see
system.mem_ctrls.rdQLenPdf::2                       0                       # What read queue length does an incoming req see
system.mem_ctrls.rdQLenPdf::3                       0                       # What read queue length does an incoming req see
system.mem_ctrls.rdQLenPdf::4                       0                       # What read queue length does an incoming req see
system.mem_ctrls.rdQLenPdf::5                       0                       # What read queue length does an incoming req see
system.mem_ctrls.rdQLenPdf::6                       0                       # What read queue length does an incoming req see
system.mem_ctrls.rdQLenPdf::7                       0                       # What read queue length does an incoming req see
system.mem_ctrls.rdQLenPdf::8                       0                       # What read queue length does an incoming req see
system.mem_ctrls.rdQLenPdf::9                       0                       # What read queue length does an incoming req see
system.mem_ctrls.rdQLenPdf::10                      0                       # What read queue length does an incoming req see
system.mem_ctrls.rdQLenPdf::11                      0                       # What read queue length does an incoming req see
system.mem_ctrls.rdQLenPdf::12                      0                       # What read queue length does an incoming req see
system.mem_ctrls.rdQLenPdf::13                      0                       # What read queue length does an incoming req see
system.mem_ctrls.rdQLenPdf::14                      0                       # What read queue length does an incoming req see
system.mem_ctrls.rdQLenPdf::15                      0                       # What read queue length does an incoming req see
system.mem_ctrls.rdQLenPdf::16                      0                       # What read queue length does an incoming req see
system.mem_ctrls.rdQLenPdf::17                      0                       # What read queue length does an incoming req see
system.mem_ctrls.rdQLenPdf::18                      0                       # What read queue length does an incoming req see
system.mem_ctrls.rdQLenPdf::19                      0                       # What read queue length does an incoming req see
system.mem_ctrls.rdQLenPdf::20                      0                       # What read queue length does an incoming req see
system.mem_ctrls.rdQLenPdf::21                      0                       # What read queue length does an incoming req see
system.mem_ctrls.rdQLenPdf::22                      0                       # What read queue length does an incoming req see
system.mem_ctrls.rdQLenPdf::23                      0                       # What read queue length does an incoming req see
system.mem_ctrls.rdQLenPdf::24                      0                       # What read queue length does an incoming req see
system.mem_ctrls.rdQLenPdf::25                      0                       # What read queue length does an incoming req see
system.mem_ctrls.rdQLenPdf::26                      0                       # What read queue length does an incoming req see
system.mem_ctrls.rdQLenPdf::27                      0                       # What read queue length does an incoming req see
system.mem_ctrls.rdQLenPdf::28                      0                       # What read queue length does an incoming req see
system.mem_ctrls.rdQLenPdf::29                      0                       # What read queue length does an incoming req see
system.mem_ctrls.rdQLenPdf::30                      0                       # What read queue length does an incoming req see
system.mem_ctrls.rdQLenPdf::31                      0                       # What read queue length does an incoming req see
system.mem_ctrls.rdQLenPdf::32                      0                       # What read queue length does an incoming req see
system.mem_ctrls.rdQLenPdf::33                      0                       # What read queue length does an incoming req see
system.mem_ctrls.rdQLenPdf::34                      0                       # What read queue length does an incoming req see
system.mem_ctrls.rdQLenPdf::35                      0                       # What read queue length does an incoming req see
system.mem_ctrls.rdQLenPdf::36                      0                       # What read queue length does an incoming req see
system.mem_ctrls.rdQLenPdf::37                      0                       # What read queue length does an incoming req see
system.mem_ctrls.rdQLenPdf::38                      0                       # What read queue length does an incoming req see
system.mem_ctrls.rdQLenPdf::39                      0                       # What read queue length does an incoming req see
system.mem_ctrls.rdQLenPdf::40                      0                       # What read queue length does an incoming req see
system.mem_ctrls.rdQLenPdf::41                      0                       # What read queue length does an incoming req see
system.mem_ctrls.rdQLenPdf::42                      0                       # What read queue length does an incoming req see
system.mem_ctrls.rdQLenPdf::43                      0                       # What read queue length does an incoming req see
system.mem_ctrls.rdQLenPdf::44                      0                       # What read queue length does an incoming req see
system.mem_ctrls.rdQLenPdf::45                      0                       # What read queue length does an incoming req see
system.mem_ctrls.rdQLenPdf::46                      0                       # What read queue length does an incoming req see
system.mem_ctrls.rdQLenPdf::47                      0                       # What read queue length does an incoming req see
system.mem_ctrls.rdQLenPdf::48                      0                       # What read queue length does an incoming req see
system.mem_ctrls.rdQLenPdf::49                      0                       # What read queue length does an incoming req see
system.mem_ctrls.rdQLenPdf::50                      0                       # What read queue length does an incoming req see
system.mem_ctrls.rdQLenPdf::51                      0                       # What read queue length does an incoming req see
system.mem_ctrls.rdQLenPdf::52                      0                       # What read queue length does an incoming req see
system.mem_ctrls.rdQLenPdf::53                      0                       # What read queue length does an incoming req see
system.mem_ctrls.rdQLenPdf::54                      0                       # What read queue length does an incoming req see
system.mem_ctrls.rdQLenPdf::55                      0                       # What read queue length does an incoming req see
system.mem_ctrls.rdQLenPdf::56                      0                       # What read queue length does an incoming req see
system.mem_ctrls.rdQLenPdf::57                      0                       # What read queue length does an incoming req see
system.mem_ctrls.rdQLenPdf::58                      0                       # What read queue length does an incoming req see
system.mem_ctrls.rdQLenPdf::59                      0                       # What read queue length does an incoming req see
system.mem_ctrls.rdQLenPdf::60                      0                       # What read queue length does an incoming req see
system.mem_ctrls.rdQLenPdf::61                      0                       # What read queue length does an incoming req see
system.mem_ctrls.rdQLenPdf::62                      0                       # What read queue length does an incoming req see
system.mem_ctrls.rdQLenPdf::63                      0                       # What read queue length does an incoming req see
system.mem_ctrls.wrQLenPdf::0                       1                       # What write queue length does an incoming req see
system.mem_ctrls.wrQLenPdf::1                       1                       # What write queue length does an incoming req see
system.mem_ctrls.wrQLenPdf::2                       1                       # What write queue length does an incoming req see
system.mem_ctrls.wrQLenPdf::3                       1                       # What write queue length does an incoming req see
system.mem_ctrls.wrQLenPdf::4                       1                       # What write queue length does an incoming req see
system.mem_ctrls.wrQLenPdf::5                       1                       # What write queue length does an incoming req see
system.mem_ctrls.wrQLenPdf::6                       1                       # What write queue length does an incoming req see
system.mem_ctrls.wrQLenPdf::7                       1                       # What write queue length does an incoming req see
system.mem_ctrls.wrQLenPdf::8                       1                       # What write queue length does an incoming req see
system.mem_ctrls.wrQLenPdf::9                       1                       # What write queue length does an incoming req see
system.mem_ctrls.wrQLenPdf::10                      1                       # What write queue length does an incoming req see
system.mem_ctrls.wrQLenPdf::11                      1                       # What write queue length does an incoming req see
system.mem_ctrls.wrQLenPdf::12                      1                       # What write queue length does an incoming req see
system.mem_ctrls.wrQLenPdf::13                      1                       # What write queue length does an incoming req see
system.mem_ctrls.wrQLenPdf::14                      1                       # What write queue length does an incoming req see
system.mem_ctrls.wrQLenPdf::15                      1                       # What write queue length does an incoming req see
system.mem_ctrls.wrQLenPdf::16                      1                       # What write queue length does an incoming req see
system.mem_ctrls.wrQLenPdf::17                      1                       # What write queue length does an incoming req see
system.mem_ctrls.wrQLenPdf::18                      1                       # What write queue length does an incoming req see
system.mem_ctrls.wrQLenPdf::19                      1                       # What write queue length does an incoming req see
system.mem_ctrls.wrQLenPdf::20                      1                       # What write queue length does an incoming req see
system.mem_ctrls.wrQLenPdf::21                      1                       # What write queue length does an incoming req see
system.mem_ctrls.wrQLenPdf::22                      1                       # What write queue length does an incoming req see
system.mem_ctrls.wrQLenPdf::23                      1                       # What write queue length does an incoming req see
system.mem_ctrls.wrQLenPdf::24                      1                       # What write queue length does an incoming req see
system.mem_ctrls.wrQLenPdf::25                      1                       # What write queue length does an incoming req see
system.mem_ctrls.wrQLenPdf::26                      1                       # What write queue length does an incoming req see
system.mem_ctrls.wrQLenPdf::27                      1                       # What write queue length does an incoming req see
system.mem_ctrls.wrQLenPdf::28                      1                       # What write queue length does an incoming req see
system.mem_ctrls.wrQLenPdf::29                      1                       # What write queue length does an incoming req see
system.mem_ctrls.wrQLenPdf::30                      1                       # What write queue length does an incoming req see
system.mem_ctrls.wrQLenPdf::31                      1                       # What write queue length does an incoming req see
system.mem_ctrls.wrQLenPdf::32                      1                       # What write queue length does an incoming req see
system.mem_ctrls.wrQLenPdf::33                      1                       # What write queue length does an incoming req see
system.mem_ctrls.wrQLenPdf::34                      1                       # What write queue length does an incoming req see
system.mem_ctrls.wrQLenPdf::35                      1                       # What write queue length does an incoming req see
system.mem_ctrls.wrQLenPdf::36                      1                       # What write queue length does an incoming req see
system.mem_ctrls.wrQLenPdf::37                      1                       # What write queue length does an incoming req see
system.mem_ctrls.wrQLenPdf::38                      1                       # What write queue length does an incoming req see
system.mem_ctrls.wrQLenPdf::39                      1                       # What write queue length does an incoming req see
system.mem_ctrls.wrQLenPdf::40                      1                       # What write queue length does an incoming req see
system.mem_ctrls.wrQLenPdf::41                      1                       # What write queue length does an incoming req see
system.mem_ctrls.wrQLenPdf::42                      1                       # What write queue length does an incoming req see
system.mem_ctrls.wrQLenPdf::43                      1                       # What write queue length does an incoming req see
system.mem_ctrls.wrQLenPdf::44                      1                       # What write queue length does an incoming req see
system.mem_ctrls.wrQLenPdf::45                      1                       # What write queue length does an incoming req see
system.mem_ctrls.wrQLenPdf::46                      1                       # What write queue length does an incoming req see
system.mem_ctrls.wrQLenPdf::47                     16                       # What write queue length does an incoming req see
system.mem_ctrls.wrQLenPdf::48                     16                       # What write queue length does an incoming req see
system.mem_ctrls.wrQLenPdf::49                     15                       # What write queue length does an incoming req see
system.mem_ctrls.wrQLenPdf::50                     15                       # What write queue length does an incoming req see
system.mem_ctrls.wrQLenPdf::51                     15                       # What write queue length does an incoming req see
system.mem_ctrls.wrQLenPdf::52                     15                       # What write queue length does an incoming req see
system.mem_ctrls.wrQLenPdf::53                     15                       # What write queue length does an incoming req see
system.mem_ctrls.wrQLenPdf::54                     15                       # What write queue length does an incoming req see
system.mem_ctrls.wrQLenPdf::55                     15                       # What write queue length does an incoming req see
system.mem_ctrls.wrQLenPdf::56                     15                       # What write queue length does an incoming req see
system.mem_ctrls.wrQLenPdf::57                     15                       # What write queue length does an incoming req see
system.mem_ctrls.wrQLenPdf::58                     15                       # What write queue length does an incoming req see
system.mem_ctrls.wrQLenPdf::59                     15                       # What write queue length does an incoming req see
system.mem_ctrls.wrQLenPdf::60                     15                       # What write queue length does an incoming req see
system.mem_ctrls.wrQLenPdf::61                     15                       # What write queue length does an incoming req see
system.mem_ctrls.wrQLenPdf::62                     15                       # What write queue length does an incoming req see
system.mem_ctrls.wrQLenPdf::63                     15                       # What write queue length does an incoming req see
system.mem_ctrls.wrQLenPdf::64                     15                       # What write queue length does an incoming req see
system.mem_ctrls.wrQLenPdf::65                      0                       # What write queue length does an incoming req see
system.mem_ctrls.wrQLenPdf::66                      0                       # What write queue length does an incoming req see
system.mem_ctrls.wrQLenPdf::67                      0                       # What write queue length does an incoming req see
system.mem_ctrls.wrQLenPdf::68                      0                       # What write queue length does an incoming req see
system.mem_ctrls.wrQLenPdf::69                      0                       # What write queue length does an incoming req see
system.mem_ctrls.wrQLenPdf::70                      0                       # What write queue length does an incoming req see
system.mem_ctrls.wrQLenPdf::71                      0                       # What write queue length does an incoming req see
system.mem_ctrls.wrQLenPdf::72                      0                       # What write queue length does an incoming req see
system.mem_ctrls.wrQLenPdf::73                      0                       # What write queue length does an incoming req see
system.mem_ctrls.wrQLenPdf::74                      0                       # What write queue length does an incoming req see
system.mem_ctrls.wrQLenPdf::75                      0                       # What write queue length does an incoming req see
system.mem_ctrls.wrQLenPdf::76                      0                       # What write queue length does an incoming req see
system.mem_ctrls.wrQLenPdf::77                      0                       # What write queue length does an incoming req see
system.mem_ctrls.wrQLenPdf::78                      0                       # What write queue length does an incoming req see
system.mem_ctrls.wrQLenPdf::79                      0                       # What write queue length does an incoming req see
system.mem_ctrls.wrQLenPdf::80                      0                       # What write queue length does an incoming req see
system.mem_ctrls.wrQLenPdf::81                      0                       # What write queue length does an incoming req see
system.mem_ctrls.wrQLenPdf::82                      0                       # What write queue length does an incoming req see
system.mem_ctrls.wrQLenPdf::83                      0                       # What write queue length does an incoming req see
system.mem_ctrls.wrQLenPdf::84                      0                       # What write queue length does an incoming req see
system.mem_ctrls.wrQLenPdf::85                      0                       # What write queue length does an incoming req see
system.mem_ctrls.wrQLenPdf::86                      0                       # What write queue length does an incoming req see
system.mem_ctrls.wrQLenPdf::87                      0                       # What write queue length does an incoming req see
system.mem_ctrls.wrQLenPdf::88                      0                       # What write queue length does an incoming req see
system.mem_ctrls.wrQLenPdf::89                      0                       # What write queue length does an incoming req see
system.mem_ctrls.wrQLenPdf::90                      0                       # What write queue length does an incoming req see
system.mem_ctrls.wrQLenPdf::91                      0                       # What write queue length does an incoming req see
system.mem_ctrls.wrQLenPdf::92                      0                       # What write queue length does an incoming req see
system.mem_ctrls.wrQLenPdf::93                      0                       # What write queue length does an incoming req see
system.mem_ctrls.wrQLenPdf::94                      0                       # What write queue length does an incoming req see
system.mem_ctrls.wrQLenPdf::95                      0                       # What write queue length does an incoming req see
system.mem_ctrls.wrQLenPdf::96                      0                       # What write queue length does an incoming req see
system.mem_ctrls.wrQLenPdf::97                      0                       # What write queue length does an incoming req see
system.mem_ctrls.wrQLenPdf::98                      0                       # What write queue length does an incoming req see
system.mem_ctrls.wrQLenPdf::99                      0                       # What write queue length does an incoming req see
system.mem_ctrls.wrQLenPdf::100                     0                       # What write queue length does an incoming req see
system.mem_ctrls.wrQLenPdf::101                     0                       # What write queue length does an incoming req see
system.mem_ctrls.wrQLenPdf::102                     0                       # What write queue length does an incoming req see
system.mem_ctrls.wrQLenPdf::103                     0                       # What write queue length does an incoming req see
system.mem_ctrls.wrQLenPdf::104                     0                       # What write queue length does an incoming req see
system.mem_ctrls.wrQLenPdf::105                     0                       # What write queue length does an incoming req see
system.mem_ctrls.wrQLenPdf::106                     0                       # What write queue length does an incoming req see
system.mem_ctrls.wrQLenPdf::107                     0                       # What write queue length does an incoming req see
system.mem_ctrls.wrQLenPdf::108                     0                       # What write queue length does an incoming req see
system.mem_ctrls.wrQLenPdf::109                     0                       # What write queue length does an incoming req see
system.mem_ctrls.wrQLenPdf::110                     0                       # What write queue length does an incoming req see
system.mem_ctrls.wrQLenPdf::111                     0                       # What write queue length does an incoming req see
system.mem_ctrls.wrQLenPdf::112                     0                       # What write queue length does an incoming req see
system.mem_ctrls.wrQLenPdf::113                     0                       # What write queue length does an incoming req see
system.mem_ctrls.wrQLenPdf::114                     0                       # What write queue length does an incoming req see
system.mem_ctrls.wrQLenPdf::115                     0                       # What write queue length does an incoming req see
system.mem_ctrls.wrQLenPdf::116                     0                       # What write queue length does an incoming req see
system.mem_ctrls.wrQLenPdf::117                     0                       # What write queue length does an incoming req see
system.mem_ctrls.wrQLenPdf::118                     0                       # What write queue length does an incoming req see
system.mem_ctrls.wrQLenPdf::119                     0                       # What write queue length does an incoming req see
system.mem_ctrls.wrQLenPdf::120                     0                       # What write queue length does an incoming req see
system.mem_ctrls.wrQLenPdf::121                     0                       # What write queue length does an incoming req see
system.mem_ctrls.wrQLenPdf::122                     0                       # What write queue length does an incoming req see
system.mem_ctrls.wrQLenPdf::123                     0                       # What write queue length does an incoming req see
system.mem_ctrls.wrQLenPdf::124                     0                       # What write queue length does an incoming req see
system.mem_ctrls.wrQLenPdf::125                     0                       # What write queue length does an incoming req see
system.mem_ctrls.wrQLenPdf::126                     0                       # What write queue length does an incoming req see
system.mem_ctrls.wrQLenPdf::127                     0                       # What write queue length does an incoming req see
system.mem_ctrls.bytesPerActivate::samples      4176191                       # Bytes accessed per row activation
system.mem_ctrls.bytesPerActivate::mean            64                       # Bytes accessed per row activation
system.mem_ctrls.bytesPerActivate::gmean    64.000000                       # Bytes accessed per row activation
system.mem_ctrls.bytesPerActivate::64-71      4176191    100.00%    100.00% # Bytes accessed per row activation
system.mem_ctrls.bytesPerActivate::total      4176191                       # Bytes accessed per row activation
system.mem_ctrls.rdPerTurnAround::samples           15                       # Reads before turning the bus around for writes
system.mem_ctrls.rdPerTurnAround::mean   252053.266667                       # Reads before turning the bus around for writes
system.mem_ctrls.rdPerTurnAround::gmean  87967.569465                       # Reads before turning the bus around for writes
system.mem_ctrls.rdPerTurnAround::stdev  511309.057716                       # Reads before turning the bus around for writes
system.mem_ctrls.rdPerTurnAround::0-32767            3     20.00%     20.00% # Reads before turning the bus around for writes
[...]
system.cpu.icache.tags.pwrStateResidencyTicks::UNDEFINED 881661810978                       # Cumulative time (in ticks) in various power states
system.cpu.icache.tags.tagsinuse           447.204377                       # Cycle average of tags in use
system.cpu.icache.tags.total_refs           571169792                       # Total number of references to valid blocks.
system.cpu.icache.tags.sampled_refs               716                       # Sample count of references to valid blocks.
system.cpu.icache.tags.avg_refs          797723.173184                       # Average number of references to valid blocks.
system.cpu.icache.tags.warmup_cycle             83250                       # Cycle when the warmup percentage was hit.
system.cpu.icache.tags.occ_blocks::.cpu.inst   447.204377                       # Average occupied blocks per requestor
system.cpu.icache.tags.occ_percent::.cpu.inst     0.873446                       # Average percentage of cache occupancy
system.cpu.icache.tags.occ_percent::total     0.873446                       # Average percentage of cache occupancy
system.cpu.icache.tags.occ_task_id_blocks::1024          504                       # Occupied blocks per task id
system.cpu.icache.tags.age_task_id_blocks_1024::0           71                       # Occupied blocks per task id
system.cpu.icache.tags.age_task_id_blocks_1024::1           28                       # Occupied blocks per task id
system.cpu.icache.tags.age_task_id_blocks_1024::4          405                       # Occupied blocks per task id
system.cpu.icache.tags.occ_task_id_percent::1024     0.984375                       # Percentage of cache occupancy per task id
system.cpu.icache.tags.tag_accesses        4569359052                       # Number of tag accesses
system.cpu.icache.tags.data_accesses       4569359052                       # Number of data accesses
system.cpu.icache.tags.repl_invalid                 0                       # Number of initial replacements
system.cpu.icache.tags.repl_valid_tag               0                       # Number of local replacements
system.cpu.icache.tags.repl_valid_data              0                       # Number of global replacements
system.cpu.dtb.walker.pwrStateResidencyTicks::UNDEFINED 881661810978                       # Cumulative time (in ticks) in various power states
system.cpu.interrupts.clk_domain.clock           5328                       # Clock period in ticks
system.cpu.itb_walker_cache.pwrStateResidencyTicks::UNDEFINED 881661810978                       # Cumulative time (in ticks) in various power states
system.cpu.itb_walker_cache.blocked_cycles::no_mshrs            0                       # number of cycles access was blocked
system.cpu.itb_walker_cache.blocked_cycles::no_targets            0                       # number of cycles access was blocked
system.cpu.itb_walker_cache.blocked::no_mshrs            0                       # number of cycles access was blocked
system.cpu.itb_walker_cache.blocked::no_targets            0                       # number of cycles access was blocked
system.cpu.itb_walker_cache.avg_blocked_cycles::no_mshrs          nan                       # average number of cycles each access was blocked
system.cpu.itb_walker_cache.avg_blocked_cycles::no_targets          nan                       # average number of cycles each access was blocked
system.cpu.itb_walker_cache.replacements            0                       # number of replacements
system.cpu.itb_walker_cache.tags.pwrStateResidencyTicks::UNDEFINED 881661810978                       # Cumulative time (in ticks) in various power states
system.cpu.itb_walker_cache.tags.tagsinuse            0                       # Cycle average of tags in use
system.cpu.itb_walker_cache.tags.total_refs            0                       # Total number of references to valid blocks.
system.cpu.itb_walker_cache.tags.sampled_refs            0                       # Sample count of references to valid blocks.
system.cpu.itb_walker_cache.tags.avg_refs          nan                       # Average number of references to valid blocks.
system.cpu.itb_walker_cache.tags.warmup_cycle            0                       # Cycle when the warmup percentage was hit.
system.cpu.itb_walker_cache.tags.tag_accesses            0                       # Number of tag accesses
system.cpu.itb_walker_cache.tags.data_accesses            0                       # Number of data accesses
system.cpu.itb_walker_cache.tags.repl_invalid            0                       # Number of initial replacements
system.cpu.itb_walker_cache.tags.repl_valid_tag            0                       # Number of local replacements
system.cpu.itb_walker_cache.tags.repl_valid_data            0                       # Number of global replacements
system.cpu.itb.walker.pwrStateResidencyTicks::UNDEFINED 881661810978                       # Cumulative time (in ticks) in various power states
system.cpu.dtb_walker_cache.pwrStateResidencyTicks::UNDEFINED 881661810978                       # Cumulative time (in ticks) in various power states
system.cpu.dtb_walker_cache.blocked_cycles::no_mshrs            0                       # number of cycles access was blocked
system.cpu.dtb_walker_cache.blocked_cycles::no_targets            0                       # number of cycles access was blocked
system.cpu.dtb_walker_cache.blocked::no_mshrs            0                       # number of cycles access was blocked
system.cpu.dtb_walker_cache.blocked::no_targets            0                       # number of cycles access was blocked
system.cpu.dtb_walker_cache.avg_blocked_cycles::no_mshrs          nan                       # average number of cycles each access was blocked
system.cpu.dtb_walker_cache.avg_blocked_cycles::no_targets          nan                       # average number of cycles each access was blocked
system.cpu.dtb_walker_cache.replacements            0                       # number of replacements
system.cpu.dtb_walker_cache.tags.pwrStateResidencyTicks::UNDEFINED 881661810978                       # Cumulative time (in ticks) in various power states
system.cpu.dtb_walker_cache.tags.tagsinuse            0                       # Cycle average of tags in use
system.cpu.dtb_walker_cache.tags.total_refs            0                       # Total number of references to valid blocks.
system.cpu.dtb_walker_cache.tags.sampled_refs            0                       # Sample count of references to valid blocks.
system.cpu.dtb_walker_cache.tags.avg_refs          nan                       # Average number of references to valid blocks.
system.cpu.dtb_walker_cache.tags.warmup_cycle            0                       # Cycle when the warmup percentage was hit.
system.cpu.dtb_walker_cache.tags.tag_accesses            0                       # Number of tag accesses
system.cpu.dtb_walker_cache.tags.data_accesses            0                       # Number of data accesses
system.cpu.dtb_walker_cache.tags.repl_invalid            0                       # Number of initial replacements
system.cpu.dtb_walker_cache.tags.repl_valid_tag            0                       # Number of local replacements
system.cpu.dtb_walker_cache.tags.repl_valid_data            0                       # Number of global replacements
system.cpu.dcache.pwrStateResidencyTicks::UNDEFINED 881661810978                       # Cumulative time (in ticks) in various power states
system.cpu.dcache.demand_hits::.cpu.data    197474147                       # number of demand (read+write) hits
system.cpu.dcache.demand_hits::total        197474147                       # number of demand (read+write) hits
system.cpu.dcache.overall_hits::.cpu.data    197474147                       # number of overall hits
system.cpu.dcache.overall_hits::total       197474147                       # number of overall hits
system.cpu.dcache.demand_misses::.cpu.data      4199288                       # number of demand (read+write) misses
system.cpu.dcache.demand_misses::total        4199288                       # number of demand (read+write) misses
system.cpu.dcache.overall_misses::.cpu.data      4199288                       # number of overall misses
system.cpu.dcache.overall_misses::total       4199288                       # number of overall misses
system.cpu.dcache.demand_miss_latency::.cpu.data 369684669276                       # number of demand (read+write) miss cycles
system.cpu.dcache.demand_miss_latency::total 369684669276                       # number of demand (read+write) miss cycles
system.cpu.dcache.overall_miss_latency::.cpu.data 369684669276                       # number of overall miss cycles
system.cpu.dcache.overall_miss_latency::total 369684669276                       # number of overall miss cycles
system.cpu.dcache.demand_accesses::.cpu.data    201673435                       # number of demand (read+write) accesses
system.cpu.dcache.demand_accesses::total    201673435                       # number of demand (read+write) accesses
system.cpu.dcache.overall_accesses::.cpu.data    201673435                       # number of overall (read+write) accesses
system.cpu.dcache.overall_accesses::total    201673435                       # number of overall (read+write) accesses
system.cpu.dcache.demand_miss_rate::.cpu.data     0.020822                       # miss rate for demand accesses
system.cpu.dcache.demand_miss_rate::total     0.020822                       # miss rate for demand accesses
system.cpu.dcache.overall_miss_rate::.cpu.data     0.020822                       # miss rate for overall accesses
system.cpu.dcache.overall_miss_rate::total     0.020822                       # miss rate for overall accesses
system.cpu.dcache.demand_avg_miss_latency::.cpu.data 88035.083394                       # average overall miss latency
system.cpu.dcache.demand_avg_miss_latency::total 88035.083394                       # average overall miss latency
system.cpu.dcache.overall_avg_miss_latency::.cpu.data 88035.083394                       # average overall miss latency
system.cpu.dcache.overall_avg_miss_latency::total 88035.083394                       # average overall miss latency
system.cpu.dcache.blocked_cycles::no_mshrs            0                       # number of cycles access was blocked
system.cpu.dcache.blocked_cycles::no_targets            0                       # number of cycles access was blocked
system.cpu.dcache.blocked::no_mshrs                 0                       # number of cycles access was blocked
system.cpu.dcache.blocked::no_targets               0                       # number of cycles access was blocked
system.cpu.dcache.avg_blocked_cycles::no_mshrs          nan                       # average number of cycles each access was blocked
system.cpu.dcache.avg_blocked_cycles::no_targets          nan                       # average number of cycles each access was blocked
system.cpu.dcache.writebacks::.writebacks         2839                       # number of writebacks
system.cpu.dcache.writebacks::total              2839                       # number of writebacks
system.cpu.dcache.demand_mshr_misses::.cpu.data      4199288                       # number of demand (read+write) MSHR misses
system.cpu.dcache.demand_mshr_misses::total      4199288                       # number of demand (read+write) MSHR misses
system.cpu.dcache.overall_mshr_misses::.cpu.data      4199288                       # number of overall MSHR misses
system.cpu.dcache.overall_mshr_misses::total      4199288                       # number of overall MSHR misses
system.cpu.dcache.demand_mshr_miss_latency::.cpu.data 366887943468                       # number of demand (read+write) MSHR miss cycles
system.cpu.dcache.demand_mshr_miss_latency::total 366887943468                       # number of demand (read+write) MSHR miss cycles
system.cpu.dcache.overall_mshr_miss_latency::.cpu.data 366887943468                       # number of overall MSHR miss cycles
system.cpu.dcache.overall_mshr_miss_latency::total 366887943468                       # number of overall MSHR miss cycles
system.cpu.dcache.demand_mshr_miss_rate::.cpu.data     0.020822                       # mshr miss rate for demand accesses
system.cpu.dcache.demand_mshr_miss_rate::total     0.020822                       # mshr miss rate for demand accesses
system.cpu.dcache.overall_mshr_miss_rate::.cpu.data     0.020822                       # mshr miss rate for overall accesses
system.cpu.dcache.overall_mshr_miss_rate::total     0.020822                       # mshr miss rate for overall accesses
system.cpu.dcache.demand_avg_mshr_miss_latency::.cpu.data 87369.083394                       # average overall mshr miss latency
system.cpu.dcache.demand_avg_mshr_miss_latency::total 87369.083394                       # average overall mshr miss latency
system.cpu.dcache.overall_avg_mshr_miss_latency::.cpu.data 87369.083394                       # average overall mshr miss latency
system.cpu.dcache.overall_avg_mshr_miss_latency::total 87369.083394                       # average overall mshr miss latency
system.cpu.dcache.replacements                4199280                       # number of replacements
system.cpu.dcache.ReadReq_hits::.cpu.data    130232667                       # number of ReadReq hits
system.cpu.dcache.ReadReq_hits::total       130232667                       # number of ReadReq hits
system.cpu.dcache.ReadReq_misses::.cpu.data      4198000                       # number of ReadReq misses
system.cpu.dcache.ReadReq_misses::total       4198000                       # number of ReadReq misses
system.cpu.dcache.ReadReq_miss_latency::.cpu.data 369647080902                       # number of ReadReq miss cycles
system.cpu.dcache.ReadReq_miss_latency::total 369647080902                       # number of ReadReq miss cycles
system.cpu.dcache.ReadReq_accesses::.cpu.data    134430667                       # number of ReadReq accesses(hits+misses)
system.cpu.dcache.ReadReq_accesses::total    134430667                       # number of ReadReq accesses(hits+misses)
system.cpu.dcache.ReadReq_miss_rate::.cpu.data     0.031228                       # miss rate for ReadReq accesses
system.cpu.dcache.ReadReq_miss_rate::total     0.031228                       # miss rate for ReadReq accesses
system.cpu.dcache.ReadReq_avg_miss_latency::.cpu.data 88053.139805                       # average ReadReq miss latency
system.cpu.dcache.ReadReq_avg_miss_latency::total 88053.139805                       # average ReadReq miss latency
system.cpu.dcache.ReadReq_mshr_misses::.cpu.data      4198000                       # number of ReadReq MSHR misses
system.cpu.dcache.ReadReq_mshr_misses::total      4198000                       # number of ReadReq MSHR misses
system.cpu.dcache.ReadReq_mshr_miss_latency::.cpu.data 366851212902                       # number of ReadReq MSHR miss cycles
system.cpu.dcache.ReadReq_mshr_miss_latency::total 366851212902                       # number of ReadReq MSHR miss cycles
system.cpu.dcache.ReadReq_mshr_miss_rate::.cpu.data     0.031228                       # mshr miss rate for ReadReq accesses
system.cpu.dcache.ReadReq_mshr_miss_rate::total     0.031228                       # mshr miss rate for ReadReq accesses
system.cpu.dcache.ReadReq_avg_mshr_miss_latency::.cpu.data 87387.139805                       # average ReadReq mshr miss latency
system.cpu.dcache.ReadReq_avg_mshr_miss_latency::total 87387.139805                       # average ReadReq mshr miss latency
system.cpu.dcache.WriteReq_hits::.cpu.data     67241480                       # number of WriteReq hits
system.cpu.dcache.WriteReq_hits::total       67241480                       # number of WriteReq hits
system.cpu.dcache.WriteReq_misses::.cpu.data         1288                       # number of WriteReq misses
system.cpu.dcache.WriteReq_misses::total         1288                       # number of WriteReq misses
system.cpu.dcache.WriteReq_miss_latency::.cpu.data     37588374                       # number of WriteReq miss cycles
system.cpu.dcache.WriteReq_miss_latency::total     37588374                       # number of WriteReq miss cycles
system.cpu.dcache.WriteReq_accesses::.cpu.data     67242768                       # number of WriteReq accesses(hits+misses)
system.cpu.dcache.WriteReq_accesses::total     67242768                       # number of WriteReq accesses(hits+misses)
system.cpu.dcache.WriteReq_miss_rate::.cpu.data     0.000019                       # miss rate for WriteReq accesses
system.cpu.dcache.WriteReq_miss_rate::total     0.000019                       # miss rate for WriteReq accesses
system.cpu.dcache.WriteReq_avg_miss_latency::.cpu.data 29183.520186                       # average WriteReq miss latency
system.cpu.dcache.WriteReq_avg_miss_latency::total 29183.520186                       # average WriteReq miss latency
system.cpu.dcache.WriteReq_mshr_misses::.cpu.data         1288                       # number of WriteReq MSHR misses
system.cpu.dcache.WriteReq_mshr_misses::total         1288                       # number of WriteReq MSHR misses
system.cpu.dcache.WriteReq_mshr_miss_latency::.cpu.data     36730566                       # number of WriteReq MSHR miss cycles
system.cpu.dcache.WriteReq_mshr_miss_latency::total     36730566                       # number of WriteReq MSHR miss cycles
system.cpu.dcache.WriteReq_mshr_miss_rate::.cpu.data     0.000019                       # mshr miss rate for WriteReq accesses
system.cpu.dcache.WriteReq_mshr_miss_rate::total     0.000019                       # mshr miss rate for WriteReq accesses
system.cpu.dcache.WriteReq_avg_mshr_miss_latency::.cpu.data 28517.520186                       # average WriteReq mshr miss latency
system.cpu.dcache.WriteReq_avg_mshr_miss_latency::total 28517.520186                       # average WriteReq mshr miss latency
system.cpu.dcache.tags.pwrStateResidencyTicks::UNDEFINED 881661810978                       # Cumulative time (in ticks) in various power states
system.cpu.dcache.tags.tagsinuse             7.999994                       # Cycle average of tags in use
system.cpu.dcache.tags.total_refs           201673435                       # Total number of references to valid blocks.
system.cpu.dcache.tags.sampled_refs           4199288                       # Sample count of references to valid blocks.
system.cpu.dcache.tags.avg_refs             48.025626                       # Average number of references to valid blocks.
system.cpu.dcache.tags.warmup_cycle            166167                       # Cycle when the warmup percentage was hit.
system.cpu.dcache.tags.occ_blocks::.cpu.data     7.999994                       # Average occupied blocks per requestor
system.cpu.dcache.tags.occ_percent::.cpu.data     0.999999                       # Average percentage of cache occupancy
system.cpu.dcache.tags.occ_percent::total     0.999999                       # Average percentage of cache occupancy
system.cpu.dcache.tags.occ_task_id_blocks::1024            8                       # Occupied blocks per task id
system.cpu.dcache.tags.age_task_id_blocks_1024::0            8                       # Occupied blocks per task id
system.cpu.dcache.tags.occ_task_id_percent::1024            1                       # Percentage of cache occupancy per task id
system.cpu.dcache.tags.tag_accesses        1617586768                       # Number of tag accesses
system.cpu.dcache.tags.data_accesses       1617586768                       # Number of data accesses
system.cpu.dcache.tags.repl_invalid                 0                       # Number of initial replacements
system.cpu.dcache.tags.repl_valid_tag               0                       # Number of local replacements
system.cpu.dcache.tags.repl_valid_data              0                       # Number of global replacements

---------- End Simulation Statistics   ----------
