
---------- Begin Simulation Statistics ----------
final_tick                               1775156003397                       # Number of ticks from beginning of simulation (restored from checkpoints and never reset)
host_inst_rate                                 769044                       # Simulator instruction rate (inst/s)
host_mem_usage                               10778700                       # Number of bytes of host memory used
host_op_rate                                  1468890                       # Simulator op (including micro ops) rate (op/s)
host_seconds                                  1336.45                       # Real time elapsed on the host
host_tick_rate                             1328262826                       # Simulator tick rate (ticks/s)
sim_freq                                 1000000000000                       # Frequency of simulated ticks
sim_insts                                  1027788099                       # Number of instructions simulated
sim_ops                                    1963096770                       # Number of ops (including micro ops) simulated
sim_seconds                                  1.775156                       # Number of seconds simulated
sim_ticks                                1775156003397                       # Number of ticks simulated
system.cpu0.Branches                          2780018                       # Number of branches fetched
system.cpu0.committedInsts                   27788099                       # Number of instructions committed
system.cpu0.committedOps                     52797721                       # Number of ops (including micro ops) committed
system.cpu0.dtb.rdAccesses                   11113063                       # TLB accesses on read requests
system.cpu0.dtb.rdMisses                         5446                       # TLB misses on read requests
system.cpu0.dtb.wrAccesses                    5557395                       # TLB accesses on write requests
system.cpu0.dtb.wrMisses                            8                       # TLB misses on write requests
system.cpu0.idle_fraction                    0.961885                       # Percentage of idle cycles
system.cpu0.itb.rdAccesses                          0                       # TLB accesses on read requests
system.cpu0.itb.rdMisses                            0                       # TLB misses on read requests
system.cpu0.itb.wrAccesses                   38902351                       # TLB accesses on write requests
system.cpu0.itb.wrMisses                           46                       # TLB misses on write requests
system.cpu0.not_idle_fraction                0.038115                       # Percentage of non-idle cycles
system.cpu0.numCycles                       203184817                       # number of cpu cycles simulated
system.cpu0.numWorkItemsCompleted                   0                       # number of work items this cpu completed
system.cpu0.numWorkItemsStarted                     0                       # number of work items this cpu started
system.cpu0.num_busy_cycles              7744443.438683                       # Number of busy cycles
system.cpu0.num_cc_register_reads            13899961                       # number of times the CC registers were read
system.cpu0.num_cc_register_writes           16672913                       # number of times the CC registers were written
system.cpu0.num_conditional_control_insts      2779471                       # number of instructions that are conditional controls
system.cpu0.num_fp_alu_accesses                  1214                       # Number of float alu accesses
system.cpu0.num_fp_insts                         1214                       # number of float instructions
system.cpu0.num_fp_register_reads                1401                       # number of times the floating registers were read
system.cpu0.num_fp_register_writes                679                       # number of times the floating registers were written
system.cpu0.num_func_calls                        384                       # number of times a function call or return occured
system.cpu0.num_idle_cycles              195440373.561317                       # Number of idle cycles
system.cpu0.num_int_alu_accesses             52796880                       # Number of integer alu accesses
system.cpu0.num_int_insts                    52796880                       # number of integer instructions
system.cpu0.num_int_register_reads          105592520                       # number of times the integer registers were read
system.cpu0.num_int_register_writes          44459432                       # number of times the integer registers were written
system.cpu0.num_load_insts                   11113060                       # Number of load instructions
system.cpu0.num_mem_refs                     16670454                       # number of memory refs
system.cpu0.num_store_insts                   5557394                       # Number of store instructions
system.cpu0.num_vec_alu_accesses                    0                       # Number of vector alu accesses
system.cpu0.num_vec_insts                           0                       # number of vector instructions
system.cpu0.num_vec_register_reads                  0                       # number of times the vector registers were read
system.cpu0.num_vec_register_writes                 0                       # number of times the vector registers were written
system.cpu0.op_class::No_OpClass                  336      0.00%      0.00% # Class of executed instruction
system.cpu0.op_class::IntAlu                 36126368     68.42%     68.42% # Class of executed instruction
system.cpu0.op_class::IntMult                       5      0.00%     68.42% # Class of executed instruction
system.cpu0.op_class::IntDiv                       28      0.00%     68.42% # Class of executed instruction
system.cpu0.op_class::FloatAdd                    144      0.00%     68.43% # Class of executed instruction
system.cpu0.op_class::FloatCmp                      0      0.00%     68.43% # Class of executed instruction
system.cpu0.op_class::FloatCvt                      0      0.00%     68.43% # Class of executed instruction
system.cpu0.op_class::FloatMult                     0      0.00%     68.43% # Class of executed instruction
system.cpu0.op_class::FloatMultAcc                  0      0.00%     68.43% # Class of executed instruction
system.cpu0.op_class::FloatDiv                      0      0.00%     68.43% # Class of executed instruction
system.cpu0.op_class::FloatMisc                     0      0.00%     68.43% # Class of executed instruction
system.cpu0.op_class::FloatSqrt                     0      0.00%     68.43% # Class of executed instruction
system.cpu0.op_class::SimdAdd                       0      0.00%     68.43% # Class of executed instruction
system.cpu0.op_class::SimdAddAcc                    0      0.00%     68.43% # Class of executed instruction
system.cpu0.op_class::SimdAlu                     104      0.00%     68.43% # Class of executed instruction
system.cpu0.op_class::SimdCmp                       0      0.00%     68.43% # Class of executed instruction
system.cpu0.op_class::SimdCvt                      54      0.00%     68.43% # Class of executed instruction
system.cpu0.op_class::SimdMisc                    228      0.00%     68.43% # Class of executed instruction
system.cpu0.op_class::SimdMult                      0      0.00%     68.43% # Class of executed instruction
system.cpu0.op_class::SimdMultAcc                   0      0.00%     68.43% # Class of executed instruction
system.cpu0.op_class::SimdShift                     0      0.00%     68.43% # Class of executed instruction
system.cpu0.op_class::SimdShiftAcc                  0      0.00%     68.43% # Class of executed instruction
system.cpu0.op_class::SimdDiv                       0      0.00%     68.43% # Class of executed instruction
system.cpu0.op_class::SimdSqrt                      0      0.00%     68.43% # Class of executed instruction
system.cpu0.op_class::SimdFloatAdd                  0      0.00%     68.43% # Class of executed instruction
system.cpu0.op_class::SimdFloatAlu                  0      0.00%     68.43% # Class of executed instruction
system.cpu0.op_class::SimdFloatCmp                  0      0.00%     68.43% # Class of executed instruction
system.cpu0.op_class::SimdFloatCvt                  0      0.00%     68.43% # Class of executed instruction
system.cpu0.op_class::SimdFloatDiv                  0      0.00%     68.43% # Class of executed instruction
system.cpu0.op_class::SimdFloatMisc                 0      0.00%     68.43% # Class of executed instruction
system.cpu0.op_class::SimdFloatMult                 0      0.00%     68.43% # Class of executed instruction
system.cpu0.op_class::SimdFloatMultAcc              0      0.00%     68.43% # Class of executed instruction
system.cpu0.op_class::SimdFloatSqrt                 0      0.00%     68.43% # Class of executed instruction
system.cpu0.op_class::SimdReduceAdd                 0      0.00%     68.43% # Class of executed instruction
system.cpu0.op_class::SimdReduceAlu                 0      0.00%     68.43% # Class of executed instruction
system.cpu0.op_class::SimdReduceCmp                 0      0.00%     68.43% # Class of executed instruction
system.cpu0.op_class::SimdFloatReduceAdd            0      0.00%     68.43% # Class of executed instruction
system.cpu0.op_class::SimdFloatReduceCmp            0      0.00%     68.43% # Class of executed instruction
system.cpu0.op_class::SimdAes                       0      0.00%     68.43% # Class of executed instruction
system.cpu0.op_class::SimdAesMix                    0      0.00%     68.43% # Class of executed instruction
system.cpu0.op_class::SimdSha1Hash                  0      0.00%     68.43% # Class of executed instruction
system.cpu0.op_class::SimdSha1Hash2                 0      0.00%     68.43% # Class of executed instruction
system.cpu0.op_class::SimdSha256Hash                0      0.00%     68.43% # Class of executed instruction
system.cpu0.op_class::SimdSha256Hash2               0      0.00%     68.43% # Class of executed instruction
system.cpu0.op_class::SimdShaSigma2                 0      0.00%     68.43% # Class of executed instruction
system.cpu0.op_class::SimdShaSigma3                 0      0.00%     68.43% # Class of executed instruction
system.cpu0.op_class::SimdPredAlu                   0      0.00%     68.43% # Class of executed instruction
system.cpu0.op_class::MemRead                11113000     21.05%     89.47% # Class of executed instruction
system.cpu0.op_class::MemWrite                5556913     10.52%    100.00% # Class of executed instruction
system.cpu0.op_class::FloatMemRead                 60      0.00%    100.00% # Class of executed instruction
system.cpu0.op_class::FloatMemWrite               481      0.00%    100.00% # Class of executed instruction
system.cpu0.op_class::IprAccess                     0      0.00%    100.00% # Class of executed instruction
system.cpu0.op_class::InstPrefetch                  0      0.00%    100.00% # Class of executed instruction
system.cpu0.op_class::total                  52797721                       # Class of executed instruction
system.cpu0.workload.numSyscalls                   12                       # Number of system calls
system.cpu1.Branches                        173515405                       # Number of branches fetched
system.cpu1.committedInsts                 1000000000                       # Number of instructions committed
system.cpu1.committedOps                   1910299049                       # Number of ops (including micro ops) committed
system.cpu1.dtb.rdAccesses                  244713139                       # TLB accesses on read requests
system.cpu1.dtb.rdMisses                       208143                       # TLB misses on read requests
system.cpu1.dtb.wrAccesses                  110837903                       # TLB accesses on write requests
system.cpu1.dtb.wrMisses                        13477                       # TLB misses on write requests
system.cpu1.idle_fraction                           0                       # Percentage of idle cycles
system.cpu1.itb.rdAccesses                          0                       # TLB accesses on read requests
system.cpu1.itb.rdMisses                            0                       # TLB misses on read requests
system.cpu1.itb.wrAccesses                 1302845886                       # TLB accesses on write requests
system.cpu1.itb.wrMisses                          484                       # TLB misses on write requests
system.cpu1.not_idle_fraction                       1                       # Percentage of non-idle cycles
system.cpu1.numCycles                      5330798809                       # number of cpu cycles simulated
system.cpu1.numWorkItemsCompleted                   0                       # number of work items this cpu completed
system.cpu1.numWorkItemsStarted                     0                       # number of work items this cpu started
system.cpu1.num_busy_cycles                5330798809                       # Number of busy cycles
system.cpu1.num_cc_register_reads           757602096                       # number of times the CC registers were read
system.cpu1.num_cc_register_writes          453817773                       # number of times the CC registers were written
system.cpu1.num_conditional_control_insts    133139078                       # number of instructions that are conditional controls
system.cpu1.num_fp_alu_accesses             337415093                       # Number of float alu accesses
system.cpu1.num_fp_insts                    337415093                       # number of float instructions
system.cpu1.num_fp_register_reads           664954531                       # number of times the floating registers were read
system.cpu1.num_fp_register_writes          321897095                       # number of times the floating registers were written
system.cpu1.num_func_calls                   17253222                       # number of times a function call or return occured
system.cpu1.num_idle_cycles                         0                       # Number of idle cycles
system.cpu1.num_int_alu_accesses           1623384076                       # Number of integer alu accesses
system.cpu1.num_int_insts                  1623384076                       # number of integer instructions
system.cpu1.num_int_register_reads         3094753984                       # number of times the integer registers were read
system.cpu1.num_int_register_writes        1277498304                       # number of times the integer registers were written
system.cpu1.num_load_insts                  244624450                       # Number of load instructions
system.cpu1.num_mem_refs                    355462328                       # number of memory refs
system.cpu1.num_store_insts                 110837878                       # Number of store instructions
system.cpu1.num_vec_alu_accesses                    0                       # Number of vector alu accesses
system.cpu1.num_vec_insts                           0                       # number of vector instructions
system.cpu1.num_vec_register_reads                  0                       # number of times the vector registers were read
system.cpu1.num_vec_register_writes                 0                       # number of times the vector registers were written
system.cpu1.op_class::No_OpClass             18686110      0.98%      0.98% # Class of executed instruction
system.cpu1.op_class::IntAlu               1216113443     63.61%     64.59% # Class of executed instruction
system.cpu1.op_class::IntMult                 2942125      0.15%     64.74% # Class of executed instruction
system.cpu1.op_class::IntDiv                     1126      0.00%     64.74% # Class of executed instruction
system.cpu1.op_class::FloatAdd               12298332      0.64%     65.39% # Class of executed instruction
system.cpu1.op_class::FloatCmp                      0      0.00%     65.39% # Class of executed instruction
system.cpu1.op_class::FloatCvt                      0      0.00%     65.39% # Class of executed instruction
system.cpu1.op_class::FloatMult                     0      0.00%     65.39% # Class of executed instruction
system.cpu1.op_class::FloatMultAcc                  0      0.00%     65.39% # Class of executed instruction
system.cpu1.op_class::FloatDiv                      0      0.00%     65.39% # Class of executed instruction
system.cpu1.op_class::FloatMisc                     0      0.00%     65.39% # Class of executed instruction
system.cpu1.op_class::FloatSqrt                     0      0.00%     65.39% # Class of executed instruction
system.cpu1.op_class::SimdAdd                   20468      0.00%     65.39% # Class of executed instruction
system.cpu1.op_class::SimdAddAcc                    0      0.00%     65.39% # Class of executed instruction
system.cpu1.op_class::SimdAlu                98028359      5.13%     70.52% # Class of executed instruction
system.cpu1.op_class::SimdCmp                    1020      0.00%     70.52% # Class of executed instruction
system.cpu1.op_class::SimdCvt                  121934      0.01%     70.52% # Class of executed instruction
system.cpu1.op_class::SimdMisc               49009772      2.56%     73.09% # Class of executed instruction
system.cpu1.op_class::SimdMult                      0      0.00%     73.09% # Class of executed instruction
system.cpu1.op_class::SimdMultAcc                   0      0.00%     73.09% # Class of executed instruction
system.cpu1.op_class::SimdShift                  4884      0.00%     73.09% # Class of executed instruction
system.cpu1.op_class::SimdShiftAcc                  0      0.00%     73.09% # Class of executed instruction
system.cpu1.op_class::SimdDiv                       0      0.00%     73.09% # Class of executed instruction
system.cpu1.op_class::SimdSqrt                      0      0.00%     73.09% # Class of executed instruction
system.cpu1.op_class::SimdFloatAdd           48929030      2.56%     75.65% # Class of executed instruction
system.cpu1.op_class::SimdFloatAlu                  0      0.00%     75.65% # Class of executed instruction
system.cpu1.op_class::SimdFloatCmp                  0      0.00%     75.65% # Class of executed instruction
system.cpu1.op_class::SimdFloatCvt           61179696      3.20%     78.85% # Class of executed instruction
system.cpu1.op_class::SimdFloatDiv                139      0.00%     78.85% # Class of executed instruction
system.cpu1.op_class::SimdFloatMisc                 0      0.00%     78.85% # Class of executed instruction
system.cpu1.op_class::SimdFloatMult          48927198      2.56%     81.41% # Class of executed instruction
system.cpu1.op_class::SimdFloatMultAcc              0      0.00%     81.41% # Class of executed instruction
system.cpu1.op_class::SimdFloatSqrt                 1      0.00%     81.41% # Class of executed instruction
system.cpu1.op_class::SimdReduceAdd                 0      0.00%     81.41% # Class of executed instruction
system.cpu1.op_class::SimdReduceAlu                 0      0.00%     81.41% # Class of executed instruction
system.cpu1.op_class::SimdReduceCmp                 0      0.00%     81.41% # Class of executed instruction
system.cpu1.op_class::SimdFloatReduceAdd            0      0.00%     81.41% # Class of executed instruction
system.cpu1.op_class::SimdFloatReduceCmp            0      0.00%     81.41% # Class of executed instruction
system.cpu1.op_class::SimdAes                       0      0.00%     81.41% # Class of executed instruction
system.cpu1.op_class::SimdAesMix                    0      0.00%     81.41% # Class of executed instruction
system.cpu1.op_class::SimdSha1Hash                  0      0.00%     81.41% # Class of executed instruction
system.cpu1.op_class::SimdSha1Hash2                 0      0.00%     81.41% # Class of executed instruction
system.cpu1.op_class::SimdSha256Hash                0      0.00%     81.41% # Class of executed instruction
system.cpu1.op_class::SimdSha256Hash2               0      0.00%     81.41% # Class of executed instruction
system.cpu1.op_class::SimdShaSigma2                 0      0.00%     81.41% # Class of executed instruction
system.cpu1.op_class::SimdShaSigma3                 0      0.00%     81.41% # Class of executed instruction
system.cpu1.op_class::SimdPredAlu                   0      0.00%     81.41% # Class of executed instruction
system.cpu1.op_class::MemRead               229116176     11.98%     93.39% # Class of executed instruction
system.cpu1.op_class::MemWrite              107582071      5.63%     99.02% # Class of executed instruction
system.cpu1.op_class::FloatMemRead           15508274      0.81%     99.83% # Class of executed instruction
system.cpu1.op_class::FloatMemWrite           3255807      0.17%    100.00% # Class of executed instruction
system.cpu1.op_class::IprAccess                     0      0.00%    100.00% # Class of executed instruction
system.cpu1.op_class::InstPrefetch                  0      0.00%    100.00% # Class of executed instruction
system.cpu1.op_class::total                1911725965                       # Class of executed instruction
system.cpu1.workload.numSyscalls                 1200                       # Number of system calls
system.membus.snoop_filter.hit_multi_requests            0                       # Number of requests hitting in the snoop filter with multiple (>1) holders of the requested data.
system.membus.snoop_filter.hit_multi_snoops            0                       # Number of snoops hitting in the snoop filter with multiple (>1) holders of the requested data.
system.membus.snoop_filter.hit_single_requests      1061726                       # Number of requests hitting in the snoop filter with a single holder of the requested data.
system.membus.snoop_filter.hit_single_snoops            0                       # Number of snoops hitting in the snoop filter with a single holder of the requested data.
system.membus.snoop_filter.tot_requests       2386430                       # Total number of requests made to the snoop filter.
system.membus.snoop_filter.tot_snoops               0                       # Total number of snoops made to the snoop filter.
system.tol2bus.snoop_filter.hit_multi_requests            0                       # Number of requests hitting in the snoop filter with multiple (>1) holders of the requested data.
system.tol2bus.snoop_filter.hit_multi_snoops            0                       # Number of snoops hitting in the snoop filter with multiple (>1) holders of the requested data.
system.tol2bus.snoop_filter.hit_single_requests     56425827                       # Number of requests hitting in the snoop filter with a single holder of the requested data.
system.tol2bus.snoop_filter.hit_single_snoops         1459                       # Number of snoops hitting in the snoop filter with a single holder of the requested data.
system.tol2bus.snoop_filter.tot_requests    112852613                       # Total number of requests made to the snoop filter.
system.tol2bus.snoop_filter.tot_snoops           1459                       # Total number of snoops made to the snoop filter.
system.membus.pwrStateResidencyTicks::UNDEFINED 1775156003397                       # Cumulative time (in ticks) in various power states
system.membus.trans_dist::ReadResp             591548                       # Transaction distribution
system.membus.trans_dist::WritebackDirty       598948                       # Transaction distribution
system.membus.trans_dist::CleanEvict           462778                       # Transaction distribution
system.membus.trans_dist::ReadExReq            733156                       # Transaction distribution
system.membus.trans_dist::ReadExResp           733156                       # Transaction distribution
system.membus.trans_dist::ReadSharedReq        591548                       # Transaction distribution
system.membus.pkt_count_system.l2.mem_side::system.mem_ctrls.port      3711134                       # Packet count per connected master and slave (bytes)
system.membus.pkt_count_system.l2.mem_side::total      3711134                       # Packet count per connected master and slave (bytes)
system.membus.pkt_count::total                3711134                       # Packet count per connected master and slave (bytes)
system.membus.pkt_size_system.l2.mem_side::system.mem_ctrls.port    123113728                       # Cumulative packet size per connected master and slave (bytes)
system.membus.pkt_size_system.l2.mem_side::total    123113728                       # Cumulative packet size per connected master and slave (bytes)
system.membus.pkt_size::total               123113728                       # Cumulative packet size per connected master and slave (bytes)
system.membus.snoops                                0                       # Total snoops (count)
system.membus.snoopTraffic                          0                       # Total snoop traffic (bytes)
system.membus.snoop_fanout::samples           1324704                       # Request fanout histogram
system.membus.snoop_fanout::mean                    0                       # Request fanout histogram
system.membus.snoop_fanout::stdev                   0                       # Request fanout histogram
system.membus.snoop_fanout::underflows              0      0.00%      0.00% # Request fanout histogram
system.membus.snoop_fanout::0                 1324704    100.00%    100.00% # Request fanout histogram
system.membus.snoop_fanout::1                       0      0.00%    100.00% # Request fanout histogram
system.membus.snoop_fanout::overflows               0      0.00%    100.00% # Request fanout histogram
system.membus.snoop_fanout::min_value               0                       # Request fanout histogram
system.membus.snoop_fanout::max_value               0                       # Request fanout histogram
system.membus.snoop_fanout::total             1324704                       # Request fanout histogram
system.membus.reqLayer4.occupancy          6031221462                       # Layer occupancy (ticks)
system.membus.reqLayer4.utilization               0.3                       # Layer utilization (%)
system.membus.respLayer1.occupancy         7084123896                       # Layer occupancy (ticks)
system.membus.respLayer1.utilization              0.4                       # Layer utilization (%)
system.voltage_domain.voltage                       1                       # Voltage in Volts
system.clk_domain.clock                          1000                       # Clock period in ticks
system.cpu0.numPwrStateTransitions                  1                       # Number of power state transitions
system.cpu0.pwrStateResidencyTicks::ON   1775156003397                       # Cumulative time (in ticks) in various power states
system.cpu0.icache.pwrStateResidencyTicks::UNDEFINED 1775156003397                       # Cumulative time (in ticks) in various power states
system.cpu0.icache.demand_hits::.cpu0.inst     38901902                       # number of demand (read+write) hits
system.cpu0.icache.demand_hits::total        38901902                       # number of demand (read+write) hits
system.cpu0.icache.overall_hits::.cpu0.inst     38901902                       # number of overall hits
system.cpu0.icache.overall_hits::total       38901902                       # number of overall hits
system.cpu0.icache.demand_misses::.cpu0.inst          449                       # number of demand (read+write) misses
system.cpu0.icache.demand_misses::total           449                       # number of demand (read+write) misses
system.cpu0.icache.overall_misses::.cpu0.inst          449                       # number of overall misses
system.cpu0.icache.overall_misses::total          449                       # number of overall misses
system.cpu0.icache.demand_miss_latency::.cpu0.inst     37958670                       # number of demand (read+write) miss cycles
system.cpu0.icache.demand_miss_latency::total     37958670                       # number of demand (read+write) miss cycles
system.cpu0.icache.overall_miss_latency::.cpu0.inst     37958670                       # number of overall miss cycles
system.cpu0.icache.overall_miss_latency::total     37958670                       # number of overall miss cycles
system.cpu0.icache.demand_accesses::.cpu0.inst     38902351                       # number of demand (read+write) accesses
system.cpu0.icache.demand_accesses::total     38902351                       # number of demand (read+write) accesses
system.cpu0.icache.overall_accesses::.cpu0.inst     38902351                       # number of overall (read+write) accesses
system.cpu0.icache.overall_accesses::total     38902351                       # number of overall (read+write) accesses
system.cpu0.icache.demand_miss_rate::.cpu0.inst     0.000012                       # miss rate for demand accesses
system.cpu0.icache.demand_miss_rate::total     0.000012                       # miss rate for demand accesses
system.cpu0.icache.overall_miss_rate::.cpu0.inst     0.000012                       # miss rate for overall accesses
system.cpu0.icache.overall_miss_rate::total     0.000012                       # miss rate for overall accesses
system.cpu0.icache.demand_avg_miss_latency::.cpu0.inst 84540.467706                       # average overall miss latency
system.cpu0.icache.demand_avg_miss_latency::total 84540.467706                       # average overall miss latency
system.cpu0.icache.overall_avg_miss_latency::.cpu0.inst 84540.467706                       # average overall miss latency
system.cpu0.icache.overall_avg_miss_latency::total 84540.467706                       # average overall miss latency
system.cpu0.icache.blocked_cycles::no_mshrs            0                       # number of cycles access was blocked
system.cpu0.icache.blocked_cycles::no_targets            0                       # number of cycles access was blocked
system.cpu0.icache.blocked::no_mshrs                0                       # number of cycles access was blocked
system.cpu0.icache.blocked::no_targets              0                       # number of cycles access was blocked
system.cpu0.icache.avg_blocked_cycles::no_mshrs          nan                       # average number of cycles each access was blocked
system.cpu0.icache.avg_blocked_cycles::no_targets          nan                       # average number of cycles each access was blocked
system.cpu0.icache.writebacks::.writebacks           18                       # number of writebacks
system.cpu0.icache.writebacks::total               18                       # number of writebacks
system.cpu0.icache.demand_mshr_misses::.cpu0.inst          449                       # number of demand (read+write) MSHR misses
system.cpu0.icache.demand_mshr_misses::total          449                       # number of demand (read+write) MSHR misses
system.cpu0.icache.overall_mshr_misses::.cpu0.inst          449                       # number of overall MSHR misses
system.cpu0.icache.overall_mshr_misses::total          449                       # number of overall MSHR misses
system.cpu0.icache.demand_mshr_miss_latency::.cpu0.inst     37659636                       # number of demand (read+write) MSHR miss cycles
system.cpu0.icache.demand_mshr_miss_latency::total     37659636                       # number of demand (read+write) MSHR miss cycles
system.cpu0.icache.overall_mshr_miss_latency::.cpu0.inst     37659636                       # number of overall MSHR miss cycles
system.cpu0.icache.overall_mshr_miss_latency::total     37659636                       # number of overall MSHR miss cycles
system.cpu0.icache.demand_mshr_miss_rate::.cpu0.inst     0.000012                       # mshr miss rate for demand accesses
system.cpu0.icache.demand_mshr_miss_rate::total     0.000012                       # mshr miss rate for demand accesses
system.cpu0.icache.overall_mshr_miss_rate::.cpu0.inst     0.000012                       # mshr miss rate for overall accesses
system.cpu0.icache.overall_mshr_miss_rate::total     0.000012                       # mshr miss rate for overall accesses
system.cpu0.icache.demand_avg_mshr_miss_latency::.cpu0.inst 83874.467706                       # average overall mshr miss latency
system.cpu0.icache.demand_avg_mshr_miss_latency::total 83874.467706                       # average overall mshr miss latency
system.cpu0.icache.overall_avg_mshr_miss_latency::.cpu0.inst 83874.467706                       # average overall mshr miss latency
system.cpu0.icache.overall_avg_mshr_miss_latency::total 83874.467706                       # average overall mshr miss latency
system.cpu0.icache.replacements                    18                       # number of replacements
system.cpu0.icache.ReadReq_hits::.cpu0.inst     38901902                       # number of ReadReq hits
system.cpu0.icache.ReadReq_hits::total       38901902                       # number of ReadReq hits
system.cpu0.icache.ReadReq_misses::.cpu0.inst          449                       # number of ReadReq misses
system.cpu0.icache.ReadReq_misses::total          449                       # number of ReadReq misses
system.cpu0.icache.ReadReq_miss_latency::.cpu0.inst     37958670                       # number of ReadReq miss cycles
system.cpu0.icache.ReadReq_miss_latency::total     37958670                       # number of ReadReq miss cycles
system.cpu0.icache.ReadReq_accesses::.cpu0.inst     38902351                       # number of ReadReq accesses(hits+misses)
system.cpu0.icache.ReadReq_accesses::total     38902351                       # number of ReadReq accesses(hits+misses)
system.cpu0.icache.ReadReq_miss_rate::.cpu0.inst     0.000012                       # miss rate for ReadReq accesses
system.cpu0.icache.ReadReq_miss_rate::total     0.000012                       # miss rate for ReadReq accesses
system.cpu0.icache.ReadReq_avg_miss_latency::.cpu0.inst 84540.467706                       # average ReadReq miss latency
system.cpu0.icache.ReadReq_avg_miss_latency::total 84540.467706                       # average ReadReq miss latency
system.cpu0.icache.ReadReq_mshr_misses::.cpu0.inst          449                       # number of ReadReq MSHR misses
system.cpu0.icache.ReadReq_mshr_misses::total          449                       # number of ReadReq MSHR misses
system.cpu0.icache.ReadReq_mshr_miss_latency::.cpu0.inst     37659636                       # number of ReadReq MSHR miss cycles
system.cpu0.icache.ReadReq_mshr_miss_latency::total     37659636                       # number of ReadReq MSHR miss cycles
system.cpu0.icache.ReadReq_mshr_miss_rate::.cpu0.inst     0.000012                       # mshr miss rate for ReadReq accesses
system.cpu0.icache.ReadReq_mshr_miss_rate::total     0.000012                       # mshr miss rate for ReadReq accesses
system.cpu0.icache.ReadReq_avg_mshr_miss_latency::.cpu0.inst 83874.467706                       # average ReadReq mshr miss latency
system.cpu0.icache.ReadReq_avg_mshr_miss_latency::total 83874.467706                       # average ReadReq mshr miss latency
system.cpu0.icache.tags.pwrStateResidencyTicks::UNDEFINED 1775156003397                       # Cumulative time (in ticks) in various power states
system.cpu0.icache.tags.tagsinuse          427.830893                       # Cycle average of tags in use
system.cpu0.icache.tags.total_refs           38902351                       # Total number of references to valid blocks.
system.cpu0.icache.tags.sampled_refs              449                       # Sample count of references to valid blocks.
system.cpu0.icache.tags.avg_refs         86642.207127                       # Average number of references to valid blocks.
system.cpu0.icache.tags.warmup_cycle            83250                       # Cycle when the warmup percentage was hit.
system.cpu0.icache.tags.occ_blocks::.cpu0.inst   427.830893                       # Average occupied blocks per requestor
system.cpu0.icache.tags.occ_percent::.cpu0.inst     0.835607                       # Average percentage of cache occupancy
system.cpu0.icache.tags.occ_percent::total     0.835607                       # Average percentage of cache occupancy
system.cpu0.icache.tags.occ_task_id_blocks::1024          431                       # Occupied blocks per task id
system.cpu0.icache.tags.age_task_id_blocks_1024::4          431                       # Occupied blocks per task id
system.cpu0.icache.tags.occ_task_id_percent::1024     0.841797                       # Percentage of cache occupancy per task id
system.cpu0.icache.tags.tag_accesses        311219257                       # Number of tag accesses
system.cpu0.icache.tags.data_accesses       311219257                       # Number of data accesses
system.cpu0.icache.tags.repl_invalid                0                       # Number of initial replacements
system.cpu0.icache.tags.repl_valid_tag              0                       # Number of local replacements
system.cpu0.icache.tags.repl_valid_data             0                       # Number of global replacements
system.cpu0.dtb.walker.pwrStateResidencyTicks::UNDEFINED 1775156003397                       # Cumulative time (in ticks) in various power states
system.cpu0.interrupts.clk_domain.clock          5328                       # Clock period in ticks
system.cpu0.itb_walker_cache.pwrStateResidencyTicks::UNDEFINED 1775156003397                       # Cumulative time (in ticks) in various power states
system.cpu0.itb_walker_cache.blocked_cycles::no_mshrs            0                       # number of cycles access was blocked
system.cpu0.itb_walker_cache.blocked_cycles::no_targets            0                       # number of cycles access was blocked
system.cpu0.itb_walker_cache.blocked::no_mshrs            0                       # number of cycles access was blocked
system.cpu0.itb_walker_cache.blocked::no_targets            0                       # number of cycles access was blocked
system.cpu0.itb_walker_cache.avg_blocked_cycles::no_mshrs          nan                       # average number of cycles each access was blocked
system.cpu0.itb_walker_cache.avg_blocked_cycles::no_targets          nan                       # average number of cycles each access was blocked
system.cpu0.itb_walker_cache.replacements            0                       # number of replacements
system.cpu0.itb_walker_cache.tags.pwrStateResidencyTicks::UNDEFINED 1775156003397                       # Cumulative time (in ticks) in various power states
system.cpu0.itb_walker_cache.tags.tagsinuse            0                       # Cycle average of tags in use
system.cpu0.itb_walker_cache.tags.total_refs            0                       # Total number of references to valid blocks.
system.cpu0.itb_walker_cache.tags.sampled_refs            0                       # Sample count of references to valid blocks.
system.cpu0.itb_walker_cache.tags.avg_refs          nan                       # Average number of references to valid blocks.
system.cpu0.itb_walker_cache.tags.warmup_cycle            0                       # Cycle when the warmup percentage was hit.
system.cpu0.itb_walker_cache.tags.tag_accesses            0                       # Number of tag accesses
system.cpu0.itb_walker_cache.tags.data_accesses            0                       # Number of data accesses
system.cpu0.itb_walker_cache.tags.repl_invalid            0                       # Number of initial replacements
system.cpu0.itb_walker_cache.tags.repl_valid_tag            0                       # Number of local replacements
system.cpu0.itb_walker_cache.tags.repl_valid_data            0                       # Number of global replacements
system.cpu0.itb.walker.pwrStateResidencyTicks::UNDEFINED 1775156003397                       # Cumulative time (in ticks) in various power states
system.cpu0.dtb_walker_cache.pwrStateResidencyTicks::UNDEFINED 1775156003397                       # Cumulative time (in ticks) in various power states
system.cpu0.dtb_walker_cache.blocked_cycles::no_mshrs            0                       # number of cycles access was blocked
system.cpu0.dtb_walker_cache.blocked_cycles::no_targets            0                       # number of cycles access was blocked
system.cpu0.dtb_walker_cache.blocked::no_mshrs            0                       # number of cycles access was blocked
system.cpu0.dtb_walker_cache.blocked::no_targets            0                       # number of cycles access was blocked
system.cpu0.dtb_walker_cache.avg_blocked_cycles::no_mshrs          nan                       # average number of cycles each access was blocked
system.cpu0.dtb_walker_cache.avg_blocked_cycles::no_targets          nan                       # average number of cycles each access was blocked
system.cpu0.dtb_walker_cache.replacements            0                       # number of replacements
system.cpu0.dtb_walker_cache.tags.pwrStateResidencyTicks::UNDEFINED 1775156003397                       # Cumulative time (in ticks) in various power states
system.cpu0.dtb_walker_cache.tags.tagsinuse            0                       # Cycle average of tags in use
system.cpu0.dtb_walker_cache.tags.total_refs            0                       # Total number of references to valid blocks.
system.cpu0.dtb_walker_cache.tags.sampled_refs            0                       # Sample count of references to valid blocks.
system.cpu0.dtb_walker_cache.tags.avg_refs          nan                       # Average number of references to valid blocks.
system.cpu0.dtb_walker_cache.tags.warmup_cycle            0                       # Cycle when the warmup percentage was hit.
system.cpu0.dtb_walker_cache.tags.tag_accesses            0                       # Number of tag accesses
system.cpu0.dtb_walker_cache.tags.data_accesses            0                       # Number of data accesses
system.cpu0.dtb_walker_cache.tags.repl_invalid            0                       # Number of initial replacements
system.cpu0.dtb_walker_cache.tags.repl_valid_tag            0                       # Number of local replacements
system.cpu0.dtb_walker_cache.tags.repl_valid_data            0                       # Number of global replacements
system.cpu0.dcache.pwrStateResidencyTicks::UNDEFINED 1775156003397                       # Cumulative time (in ticks) in various power states
system.cpu0.dcache.demand_hits::.cpu0.data     16322542                       # number of demand (read+write) hits
system.cpu0.dcache.demand_hits::total        16322542                       # number of demand (read+write) hits
system.cpu0.dcache.overall_hits::.cpu0.data     16322542                       # number of overall hits
system.cpu0.dcache.overall_hits::total       16322542                       # number of overall hits
system.cpu0.dcache.demand_misses::.cpu0.data       347916                       # number of demand (read+write) misses
system.cpu0.dcache.demand_misses::total        347916                       # number of demand (read+write) misses
system.cpu0.dcache.overall_misses::.cpu0.data       347916                       # number of overall misses
system.cpu0.dcache.overall_misses::total       347916                       # number of overall misses
system.cpu0.dcache.demand_miss_latency::.cpu0.data  30843128997                       # number of demand (read+write) miss cycles
system.cpu0.dcache.demand_miss_latency::total  30843128997                       # number of demand (read+write) miss cycles
system.cpu0.dcache.overall_miss_latency::.cpu0.data  30843128997                       # number of overall miss cycles
system.cpu0.dcache.overall_miss_latency::total  30843128997                       # number of overall miss cycles
system.cpu0.dcache.demand_accesses::.cpu0.data     16670458                       # number of demand (read+write) accesses
system.cpu0.dcache.demand_accesses::total     16670458                       # number of demand (read+write) accesses
system.cpu0.dcache.overall_accesses::.cpu0.data     16670458                       # number of overall (read+write) accesses
system.cpu0.dcache.overall_accesses::total     16670458                       # number of overall (read+write) accesses
system.cpu0.dcache.demand_miss_rate::.cpu0.data     0.020870                       # miss rate for demand accesses
system.cpu0.dcache.demand_miss_rate::total     0.020870                       # miss rate for demand accesses
system.cpu0.dcache.overall_miss_rate::.cpu0.data     0.020870                       # miss rate for overall accesses
system.cpu0.dcache.overall_miss_rate::total     0.020870                       # miss rate for overall accesses
system.cpu0.dcache.demand_avg_miss_latency::.cpu0.data 88651.079562                       # average overall miss latency
system.cpu0.dcache.demand_avg_miss_latency::total 88651.079562                       # average overall miss latency
system.cpu0.dcache.overall_avg_miss_latency::.cpu0.data 88651.079562                       # average overall miss latency
system.cpu0.dcache.overall_avg_miss_latency::total 88651.079562                       # average overall miss latency
system.cpu0.dcache.blocked_cycles::no_mshrs            0                       # number of cycles access was blocked
system.cpu0.dcache.blocked_cycles::no_targets            0                       # number of cycles access was blocked
system.cpu0.dcache.blocked::no_mshrs                0                       # number of cycles access was blocked
system.cpu0.dcache.blocked::no_targets              0                       # number of cycles access was blocked
system.cpu0.dcache.avg_blocked_cycles::no_mshrs          nan                       # average number of cycles each access was blocked
system.cpu0.dcache.avg_blocked_cycles::no_targets          nan                       # average number of cycles each access was blocked
system.cpu0.dcache.writebacks::.writebacks          514                       # number of writebacks
system.cpu0.dcache.writebacks::total              514                       # number of writebacks
system.cpu0.dcache.demand_mshr_misses::.cpu0.data       347916                       # number of demand (read+write) MSHR misses
system.cpu0.dcache.demand_mshr_misses::total       347916                       # number of demand (read+write) MSHR misses
system.cpu0.dcache.overall_mshr_misses::.cpu0.data       347916                       # number of overall MSHR misses
system.cpu0.dcache.overall_mshr_misses::total       347916                       # number of overall MSHR misses
system.cpu0.dcache.demand_mshr_miss_latency::.cpu0.data  30611416941                       # number of demand (read+write) MSHR miss cycles
system.cpu0.dcache.demand_mshr_miss_latency::total  30611416941                       # number of demand (read+write) MSHR miss cycles
system.cpu0.dcache.overall_mshr_miss_latency::.cpu0.data  30611416941                       # number of overall MSHR miss cycles
system.cpu0.dcache.overall_mshr_miss_latency::total  30611416941                       # number of overall MSHR miss cycles
system.cpu0.dcache.demand_mshr_miss_rate::.cpu0.data     0.020870                       # mshr miss rate for demand accesses
system.cpu0.dcache.demand_mshr_miss_rate::total     0.020870                       # mshr miss rate for demand accesses
system.cpu0.dcache.overall_mshr_miss_rate::.cpu0.data     0.020870                       # mshr miss rate for overall accesses
system.cpu0.dcache.overall_mshr_miss_rate::total     0.020870                       # mshr miss rate for overall accesses
system.cpu0.dcache.demand_avg_mshr_miss_latency::.cpu0.data 87985.079562                       # average overall mshr miss latency
system.cpu0.dcache.demand_avg_mshr_miss_latency::total 87985.079562                       # average overall mshr miss latency
system.cpu0.dcache.overall_avg_mshr_miss_latency::.cpu0.data 87985.079562                       # average overall mshr miss latency
system.cpu0.dcache.overall_avg_mshr_miss_latency::total 87985.079562                       # average overall mshr miss latency
system.cpu0.dcache.replacements                347908                       # number of replacements
system.cpu0.dcache.ReadReq_hits::.cpu0.data     10765403                       # number of ReadReq hits
system.cpu0.dcache.ReadReq_hits::total       10765403                       # number of ReadReq hits
system.cpu0.dcache.ReadReq_misses::.cpu0.data       347660                       # number of ReadReq misses
system.cpu0.dcache.ReadReq_misses::total       347660                       # number of ReadReq misses
system.cpu0.dcache.ReadReq_miss_latency::.cpu0.data  30831089715                       # number of ReadReq miss cycles
system.cpu0.dcache.ReadReq_miss_latency::total  30831089715                       # number of ReadReq miss cycles
system.cpu0.dcache.ReadReq_accesses::.cpu0.data     11113063                       # number of ReadReq accesses(hits+misses)
system.cpu0.dcache.ReadReq_accesses::total     11113063                       # number of ReadReq accesses(hits+misses)
system.cpu0.dcache.ReadReq_miss_rate::.cpu0.data     0.031284                       # miss rate for ReadReq accesses
system.cpu0.dcache.ReadReq_miss_rate::total     0.031284                       # miss rate for ReadReq accesses
system.cpu0.dcache.ReadReq_avg_miss_latency::.cpu0.data 88681.728456                       # average ReadReq miss latency
system.cpu0.dcache.ReadReq_avg_miss_latency::total 88681.728456                       # average ReadReq miss latency
system.cpu0.dcache.ReadReq_mshr_misses::.cpu0.data       347660                       # number of ReadReq MSHR misses
system.cpu0.dcache.ReadReq_mshr_misses::total       347660                       # number of ReadReq MSHR misses
system.cpu0.dcache.ReadReq_mshr_miss_latency::.cpu0.data  30599548155                       # number of ReadReq MSHR miss cycles
system.cpu0.dcache.ReadReq_mshr_miss_latency::total  30599548155                       # number of ReadReq MSHR miss cycles
system.cpu0.dcache.ReadReq_mshr_miss_rate::.cpu0.data     0.031284                       # mshr miss rate for ReadReq accesses
system.cpu0.dcache.ReadReq_mshr_miss_rate::total     0.031284                       # mshr miss rate for ReadReq accesses
system.cpu0.dcache.ReadReq_avg_mshr_miss_latency::.cpu0.data 88015.728456                       # average ReadReq mshr miss latency
system.cpu0.dcache.ReadReq_avg_mshr_miss_latency::total 88015.728456                       # average ReadReq mshr miss latency
system.cpu0.dcache.WriteReq_hits::.cpu0.data      5557139                       # number of WriteReq hits
system.cpu0.dcache.WriteReq_hits::total       5557139                       # number of WriteReq hits
system.cpu0.dcache.WriteReq_misses::.cpu0.data          256                       # number of WriteReq misses
system.cpu0.dcache.WriteReq_misses::total          256                       # number of WriteReq misses
system.cpu0.dcache.WriteReq_miss_latency::.cpu0.data     12039282                       # number of WriteReq miss cycles
system.cpu0.dcache.WriteReq_miss_latency::total     12039282                       # number of WriteReq miss cycles
system.cpu0.dcache.WriteReq_accesses::.cpu0.data      5557395                       # number of WriteReq accesses(hits+misses)
system.cpu0.dcache.WriteReq_accesses::total      5557395                       # number of WriteReq accesses(hits+misses)
system.cpu0.dcache.WriteReq_miss_rate::.cpu0.data     0.000046                       # miss rate for WriteReq accesses
system.cpu0.dcache.WriteReq_miss_rate::total     0.000046                       # miss rate for WriteReq accesses
system.cpu0.dcache.WriteReq_avg_miss_latency::.cpu0.data 47028.445312                       # average WriteReq miss latency
system.cpu0.dcache.WriteReq_avg_miss_latency::total 47028.445312                       # average WriteReq miss latency
system.cpu0.dcache.WriteReq_mshr_misses::.cpu0.data          256                       # number of WriteReq MSHR misses
system.cpu0.dcache.WriteReq_mshr_misses::total          256                       # number of WriteReq MSHR misses
system.cpu0.dcache.WriteReq_mshr_miss_latency::.cpu0.data     11868786                       # number of WriteReq MSHR miss cycles
system.cpu0.dcache.WriteReq_mshr_miss_latency::total     11868786                       # number of WriteReq MSHR miss cycles
system.cpu0.dcache.WriteReq_mshr_miss_rate::.cpu0.data     0.000046                       # mshr miss rate for WriteReq accesses
system.cpu0.dcache.WriteReq_mshr_miss_rate::total     0.000046                       # mshr miss rate for WriteReq accesses
system.cpu0.dcache.WriteReq_avg_mshr_miss_latency::.cpu0.data 46362.445312                       # average WriteReq mshr miss latency
system.cpu0.dcache.WriteReq_avg_mshr_miss_latency::total 46362.445312                       # average WriteReq mshr miss latency
system.cpu0.dcache.tags.pwrStateResidencyTicks::UNDEFINED 1775156003397                       # Cumulative time (in ticks) in various power states
system.cpu0.dcache.tags.tagsinuse            7.999997                       # Cycle average of tags in use
system.cpu0.dcache.tags.total_refs           16670458                       # Total number of references to valid blocks.
system.cpu0.dcache.tags.sampled_refs           347916                       # Sample count of references to valid blocks.
system.cpu0.dcache.tags.avg_refs            47.915181                       # Average number of references to valid blocks.
system.cpu0.dcache.tags.warmup_cycle           166167                       # Cycle when the warmup percentage was hit.
system.cpu0.dcache.tags.occ_blocks::.cpu0.data     7.999997                       # Average occupied blocks per requestor
system.cpu0.dcache.tags.occ_percent::.cpu0.data     1.000000                       # Average percentage of cache occupancy
system.cpu0.dcache.tags.occ_percent::total     1.000000                       # Average percentage of cache occupancy
system.cpu0.dcache.tags.occ_task_id_blocks::1024            8                       # Occupied blocks per task id
system.cpu0.dcache.tags.age_task_id_blocks_1024::4            8                       # Occupied blocks per task id
system.cpu0.dcache.tags.occ_task_id_percent::1024            1                       # Percentage of cache occupancy per task id
system.cpu0.dcache.tags.tag_accesses        133711580                       # Number of tag accesses
system.cpu0.dcache.tags.data_accesses       133711580                       # Number of data accesses
system.cpu0.dcache.tags.repl_invalid                0                       # Number of initial replacements
system.cpu0.dcache.tags.repl_valid_tag              0                       # Number of local replacements
system.cpu0.dcache.tags.repl_valid_data             0                       # Number of global replacements
system.cpu1.numPwrStateTransitions                  1                       # Number of power state transitions
system.cpu1.pwrStateResidencyTicks::ON   1775156003397                       # Cumulative time (in ticks) in various power states
system.cpu1.icache.pwrStateResidencyTicks::UNDEFINED 1775156003397                       # Cumulative time (in ticks) in various power states
system.cpu1.icache.demand_hits::.cpu1.inst   1302841089                       # number of demand (read+write) hits
system.cpu1.icache.demand_hits::total      1302841089                       # number of demand (read+write) hits
system.cpu1.icache.overall_hits::.cpu1.inst   1302841089                       # number of overall hits
system.cpu1.icache.overall_hits::total     1302841089                       # number of overall hits
system.cpu1.icache.demand_misses::.cpu1.inst         4797                       # number of demand (read+write) misses
system.cpu1.icache.demand_misses::total          4797                       # number of demand (read+write) misses
system.cpu1.icache.overall_misses::.cpu1.inst         4797                       # number of overall misses
system.cpu1.icache.overall_misses::total         4797                       # number of overall misses
system.cpu1.icache.demand_miss_latency::.cpu1.inst    280229490                       # number of demand (read+write) miss cycles
system.cpu1.icache.demand_miss_latency::total    280229490                       # number of demand (read+write) miss cycles
system.cpu1.icache.overall_miss_latency::.cpu1.inst    280229490                       # number of overall miss cycles
system.cpu1.icache.overall_miss_latency::total    280229490                       # number of overall miss cycles
system.cpu1.icache.demand_accesses::.cpu1.inst   1302845886                       # number of demand (read+write) accesses
system.cpu1.icache.demand_accesses::total   1302845886                       # number of demand (read+write) accesses
system.cpu1.icache.overall_accesses::.cpu1.inst   1302845886                       # number of overall (read+write) accesses
system.cpu1.icache.overall_accesses::total   1302845886                       # number of overall (read+write) accesses
system.cpu1.icache.demand_miss_rate::.cpu1.inst     0.000004                       # miss rate for demand accesses
system.cpu1.icache.demand_miss_rate::total     0.000004                       # miss rate for demand accesses
system.cpu1.icache.overall_miss_rate::.cpu1.inst     0.000004                       # miss rate for overall accesses
system.cpu1.icache.overall_miss_rate::total     0.000004                       # miss rate for overall accesses
system.cpu1.icache.demand_avg_miss_latency::.cpu1.inst 58417.654784                       # average overall miss latency
system.cpu1.icache.demand_avg_miss_latency::total 58417.654784                       # average overall miss latency
system.cpu1.icache.overall_avg_miss_latency::.cpu1.inst 58417.654784                       # average overall miss latency
system.cpu1.icache.overall_avg_miss_latency::total 58417.654784                       # average overall miss latency
system.cpu1.icache.blocked_cycles::no_mshrs            0                       # number of cycles access was blocked
system.cpu1.icache.blocked_cycles::no_targets            0                       # number of cycles access was blocked
system.cpu1.icache.blocked::no_mshrs                0                       # number of cycles access was blocked
system.cpu1.icache.blocked::no_targets              0                       # number of cycles access was blocked
system.cpu1.icache.avg_blocked_cycles::no_mshrs          nan                       # average number of cycles each access was blocked
system.cpu1.icache.avg_blocked_cycles::no_targets          nan                       # average number of cycles each access was blocked
system.cpu1.icache.writebacks::.writebacks         4285                       # number of writebacks
system.cpu1.icache.writebacks::total             4285                       # number of writebacks
system.cpu1.icache.demand_mshr_misses::.cpu1.inst         4797                       # number of demand (read+write) MSHR misses
system.cpu1.icache.demand_mshr_misses::total         4797                       # number of demand (read+write) MSHR misses
system.cpu1.icache.overall_mshr_misses::.cpu1.inst         4797                       # number of overall MSHR misses
system.cpu1.icache.overall_mshr_misses::total         4797                       # number of overall MSHR misses
system.cpu1.icache.demand_mshr_miss_latency::.cpu1.inst    277034688                       # number of demand (read+write) MSHR miss cycles
system.cpu1.icache.demand_mshr_miss_latency::total    277034688                       # number of demand (read+write) MSHR miss cycles
system.cpu1.icache.overall_mshr_miss_latency::.cpu1.inst    277034688                       # number of overall MSHR miss cycles
system.cpu1.icache.overall_mshr_miss_latency::total    277034688                       # number of overall MSHR miss cycles
system.cpu1.icache.demand_mshr_miss_rate::.cpu1.inst     0.000004                       # mshr miss rate for demand accesses
system.cpu1.icache.demand_mshr_miss_rate::total     0.000004                       # mshr miss rate for demand accesses
system.cpu1.icache.overall_mshr_miss_rate::.cpu1.inst     0.000004                       # mshr miss rate for overall accesses
system.cpu1.icache.overall_mshr_miss_rate::total     0.000004                       # mshr miss rate for overall accesses
system.cpu1.icache.demand_avg_mshr_miss_latency::.cpu1.inst 57751.654784                       # average overall mshr miss latency
system.cpu1.icache.demand_avg_mshr_miss_latency::total 57751.654784                       # average overall mshr miss latency
system.cpu1.icache.overall_avg_mshr_miss_latency::.cpu1.inst 57751.654784                       # average overall mshr miss latency
system.cpu1.icache.overall_avg_mshr_miss_latency::total 57751.654784                       # average overall mshr miss latency
system.cpu1.icache.replacements                  4285                       # number of replacements
system.cpu1.icache.ReadReq_hits::.cpu1.inst   1302841089                       # number of ReadReq hits
system.cpu1.icache.ReadReq_hits::total     1302841089                       # number of ReadReq hits
system.cpu1.icache.ReadReq_misses::.cpu1.inst         4797                       # number of ReadReq misses
system.cpu1.icache.ReadReq_misses::total         4797                       # number of ReadReq misses
system.cpu1.icache.ReadReq_miss_latency::.cpu1.inst    280229490                       # number of ReadReq miss cycles
system.cpu1.icache.ReadReq_miss_latency::total    280229490                       # number of ReadReq miss cycles
system.cpu1.icache.ReadReq_accesses::.cpu1.inst   1302845886                       # number of ReadReq accesses(hits+misses)
system.cpu1.icache.ReadReq_accesses::total   1302845886                       # number of ReadReq accesses(hits+misses)
system.cpu1.icache.ReadReq_miss_rate::.cpu1.inst     0.000004                       # miss rate for ReadReq accesses
system.cpu1.icache.ReadReq_miss_rate::total     0.000004                       # miss rate for ReadReq accesses
system.cpu1.icache.ReadReq_avg_miss_latency::.cpu1.inst 58417.654784                       # average ReadReq miss latency
system.cpu1.icache.ReadReq_avg_miss_latency::total 58417.654784                       # average ReadReq miss latency
system.cpu1.icache.ReadReq_mshr_misses::.cpu1.inst         4797                       # number of ReadReq MSHR misses
system.cpu1.icache.ReadReq_mshr_misses::total         4797                       # number of ReadReq MSHR misses
system.cpu1.icache.ReadReq_mshr_miss_latency::.cpu1.inst    277034688                       # number of ReadReq MSHR miss cycles
system.cpu1.icache.ReadReq_mshr_miss_latency::total    277034688                       # number of ReadReq MSHR miss cycles
system.cpu1.icache.ReadReq_mshr_miss_rate::.cpu1.inst     0.000004                       # mshr miss rate for ReadReq accesses
system.cpu1.icache.ReadReq_mshr_miss_rate::total     0.000004                       # mshr miss rate for ReadReq accesses
system.cpu1.icache.ReadReq_avg_mshr_miss_latency::.cpu1.inst 57751.654784                       # average ReadReq mshr miss latency
system.cpu1.icache.ReadReq_avg_mshr_miss_latency::total 57751.654784                       # average ReadReq mshr miss latency
system.cpu1.icache.tags.pwrStateResidencyTicks::UNDEFINED 1775156003397                       # Cumulative time (in ticks) in various power states
system.cpu1.icache.tags.tagsinuse          511.983980                       # Cycle average of tags in use
system.cpu1.icache.tags.total_refs         1302845886                       # Total number of references to valid blocks.
system.cpu1.icache.tags.sampled_refs             4797                       # Sample count of references to valid blocks.
system.cpu1.icache.tags.avg_refs         271595.973734                       # Average number of references to valid blocks.
system.cpu1.icache.tags.warmup_cycle            88245                       # Cycle when the warmup percentage was hit.
system.cpu1.icache.tags.occ_blocks::.cpu1.inst   511.983980                       # Average occupied blocks per requestor
system.cpu1.icache.tags.occ_percent::.cpu1.inst     0.999969                       # Average percentage of cache occupancy
system.cpu1.icache.tags.occ_percent::total     0.999969                       # Average percentage of cache occupancy
system.cpu1.icache.tags.occ_task_id_blocks::1024          512                       # Occupied blocks per task id
system.cpu1.icache.tags.age_task_id_blocks_1024::4          512                       # Occupied blocks per task id
system.cpu1.icache.tags.occ_task_id_percent::1024            1                       # Percentage of cache occupancy per task id
system.cpu1.icache.tags.tag_accesses      10422771885                       # Number of tag accesses
system.cpu1.icache.tags.data_accesses     10422771885                       # Number of data accesses
system.cpu1.icache.tags.repl_invalid                0                       # Number of initial replacements
system.cpu1.icache.tags.repl_valid_tag              0                       # Number of local replacements
system.cpu1.icache.tags.repl_valid_data             0                       # Number of global replacements
system.cpu1.dtb.walker.pwrStateResidencyTicks::UNDEFINED 1775156003397                       # Cumulative time (in ticks) in various power states
system.cpu1.interrupts.clk_domain.clock          5328                       # Clock period in ticks
system.cpu1.itb_walker_cache.pwrStateResidencyTicks::UNDEFINED 1775156003397                       # Cumulative time (in ticks) in various power states
system.cpu1.itb_walker_cache.blocked_cycles::no_mshrs            0                       # number of cycles access was blocked
system.cpu1.itb_walker_cache.blocked_cycles::no_targets            0                       # number of cycles access was blocked
system.cpu1.itb_walker_cache.blocked::no_mshrs            0                       # number of cycles access was blocked
system.cpu1.itb_walker_cache.blocked::no_targets            0                       # number of cycles access was blocked
system.cpu1.itb_walker_cache.avg_blocked_cycles::no_mshrs          nan                       # average number of cycles each access was blocked
system.cpu1.itb_walker_cache.avg_blocked_cycles::no_targets          nan                       # average number of cycles each access was blocked
system.cpu1.itb_walker_cache.replacements            0                       # number of replacements
system.cpu1.itb_walker_cache.tags.pwrStateResidencyTicks::UNDEFINED 1775156003397                       # Cumulative time (in ticks) in various power states
system.cpu1.itb_walker_cache.tags.tagsinuse            0                       # Cycle average of tags in use
system.cpu1.itb_walker_cache.tags.total_refs            0                       # Total number of references to valid blocks.
system.cpu1.itb_walker_cache.tags.sampled_refs            0                       # Sample count of references to valid blocks.
system.cpu1.itb_walker_cache.tags.avg_refs          nan                       # Average number of references to valid blocks.
system.cpu1.itb_walker_cache.tags.warmup_cycle            0                       # Cycle when the warmup percentage was hit.
system.cpu1.itb_walker_cache.tags.tag_accesses            0                       # Number of tag accesses
system.cpu1.itb_walker_cache.tags.data_accesses            0                       # Number of data accesses
system.cpu1.itb_walker_cache.tags.repl_invalid            0                       # Number of initial replacements
system.cpu1.itb_walker_cache.tags.repl_valid_tag            0                       # Number of local replacements
system.cpu1.itb_walker_cache.tags.repl_valid_data            0                       # Number of global replacements
system.cpu1.itb.walker.pwrStateResidencyTicks::UNDEFINED 1775156003397                       # Cumulative time (in ticks) in various power states
system.cpu1.dtb_walker_cache.pwrStateResidencyTicks::UNDEFINED 1775156003397                       # Cumulative time (in ticks) in various power states
system.cpu1.dtb_walker_cache.blocked_cycles::no_mshrs            0                       # number of cycles access was blocked
system.cpu1.dtb_walker_cache.blocked_cycles::no_targets            0                       # number of cycles access was blocked
system.cpu1.dtb_walker_cache.blocked::no_mshrs            0                       # number of cycles access was blocked
system.cpu1.dtb_walker_cache.blocked::no_targets            0                       # number of cycles access was blocked
system.cpu1.dtb_walker_cache.avg_blocked_cycles::no_mshrs          nan                       # average number of cycles each access was blocked
system.cpu1.dtb_walker_cache.avg_blocked_cycles::no_targets          nan                       # average number of cycles each access was blocked
system.cpu1.dtb_walker_cache.replacements            0                       # number of replacements
system.cpu1.dtb_walker_cache.tags.pwrStateResidencyTicks::UNDEFINED 1775156003397                       # Cumulative time (in ticks) in various power states
system.cpu1.dtb_walker_cache.tags.tagsinuse            0                       # Cycle average of tags in use
system.cpu1.dtb_walker_cache.tags.total_refs            0                       # Total number of references to valid blocks.
system.cpu1.dtb_walker_cache.tags.sampled_refs            0                       # Sample count of references to valid blocks.
system.cpu1.dtb_walker_cache.tags.avg_refs          nan                       # Average number of references to valid blocks.
system.cpu1.dtb_walker_cache.tags.warmup_cycle            0                       # Cycle when the warmup percentage was hit.
system.cpu1.dtb_walker_cache.tags.tag_accesses            0                       # Number of tag accesses
system.cpu1.dtb_walker_cache.tags.data_accesses            0                       # Number of data accesses
system.cpu1.dtb_walker_cache.tags.repl_invalid            0                       # Number of initial replacements
system.cpu1.dtb_walker_cache.tags.repl_valid_tag            0                       # Number of local replacements
system.cpu1.dtb_walker_cache.tags.repl_valid_data            0                       # Number of global replacements
system.cpu1.dcache.pwrStateResidencyTicks::UNDEFINED 1775156003397                       # Cumulative time (in ticks) in various power states
system.cpu1.dcache.demand_hits::.cpu1.data    297693774                       # number of demand (read+write) hits
system.cpu1.dcache.demand_hits::total       297693774                       # number of demand (read+write) hits
system.cpu1.dcache.overall_hits::.cpu1.data    298046048                       # number of overall hits
system.cpu1.dcache.overall_hits::total      298046048                       # number of overall hits
system.cpu1.dcache.demand_misses::.cpu1.data     55716894                       # number of demand (read+write) misses
system.cpu1.dcache.demand_misses::total      55716894                       # number of demand (read+write) misses
system.cpu1.dcache.overall_misses::.cpu1.data     56078078                       # number of overall misses
system.cpu1.dcache.overall_misses::total     56078078                       # number of overall misses
system.cpu1.dcache.demand_miss_latency::.cpu1.data 708960421575                       # number of demand (read+write) miss cycles
system.cpu1.dcache.demand_miss_latency::total 708960421575                       # number of demand (read+write) miss cycles
system.cpu1.dcache.overall_miss_latency::.cpu1.data 708960421575                       # number of overall miss cycles
system.cpu1.dcache.overall_miss_latency::total 708960421575                       # number of overall miss cycles
system.cpu1.dcache.demand_accesses::.cpu1.data    353410668                       # number of demand (read+write) accesses
system.cpu1.dcache.demand_accesses::total    353410668                       # number of demand (read+write) accesses
system.cpu1.dcache.overall_accesses::.cpu1.data    354124126                       # number of overall (read+write) accesses
system.cpu1.dcache.overall_accesses::total    354124126                       # number of overall (read+write) accesses
system.cpu1.dcache.demand_miss_rate::.cpu1.data     0.157655                       # miss rate for demand accesses
system.cpu1.dcache.demand_miss_rate::total     0.157655                       # miss rate for demand accesses
system.cpu1.dcache.overall_miss_rate::.cpu1.data     0.158357                       # miss rate for overall accesses
system.cpu1.dcache.overall_miss_rate::total     0.158357                       # miss rate for overall accesses
system.cpu1.dcache.demand_avg_miss_latency::.cpu1.data 12724.334949                       # average overall miss latency
system.cpu1.dcache.demand_avg_miss_latency::total 12724.334949                       # average overall miss latency
system.cpu1.dcache.overall_avg_miss_latency::.cpu1.data 12642.380889                       # average overall miss latency
system.cpu1.dcache.overall_avg_miss_latency::total 12642.380889                       # average overall miss latency
system.cpu1.dcache.blocked_cycles::no_mshrs            0                       # number of cycles access was blocked
system.cpu1.dcache.blocked_cycles::no_targets            0                       # number of cycles access was blocked
system.cpu1.dcache.blocked::no_mshrs                0                       # number of cycles access was blocked
system.cpu1.dcache.blocked::no_targets              0                       # number of cycles access was blocked
system.cpu1.dcache.avg_blocked_cycles::no_mshrs          nan                       # average number of cycles each access was blocked
system.cpu1.dcache.avg_blocked_cycles::no_targets          nan                       # average number of cycles each access was blocked
system.cpu1.dcache.writebacks::.writebacks     48228041                       # number of writebacks
system.cpu1.dcache.writebacks::total         48228041                       # number of writebacks
system.cpu1.dcache.demand_mshr_misses::.cpu1.data     55716894                       # number of demand (read+write) MSHR misses
system.cpu1.dcache.demand_mshr_misses::total     55716894                       # number of demand (read+write) MSHR misses
system.cpu1.dcache.overall_mshr_misses::.cpu1.data     56073624                       # number of overall MSHR misses
system.cpu1.dcache.overall_mshr_misses::total     56073624                       # number of overall MSHR misses
system.cpu1.dcache.demand_mshr_miss_latency::.cpu1.data 671852970171                       # number of demand (read+write) MSHR miss cycles
system.cpu1.dcache.demand_mshr_miss_latency::total 671852970171                       # number of demand (read+write) MSHR miss cycles
system.cpu1.dcache.overall_mshr_miss_latency::.cpu1.data 693502496973                       # number of overall MSHR miss cycles
system.cpu1.dcache.overall_mshr_miss_latency::total 693502496973                       # number of overall MSHR miss cycles
system.cpu1.dcache.demand_mshr_miss_rate::.cpu1.data     0.157655                       # mshr miss rate for demand accesses
system.cpu1.dcache.demand_mshr_miss_rate::total     0.157655                       # mshr miss rate for demand accesses
system.cpu1.dcache.overall_mshr_miss_rate::.cpu1.data     0.158345                       # mshr miss rate for overall accesses
system.cpu1.dcache.overall_mshr_miss_rate::total     0.158345                       # mshr miss rate for overall accesses
system.cpu1.dcache.demand_avg_mshr_miss_latency::.cpu1.data 12058.334949                       # average overall mshr miss latency
system.cpu1.dcache.demand_avg_mshr_miss_latency::total 12058.334949                       # average overall mshr miss latency
system.cpu1.dcache.overall_avg_mshr_miss_latency::.cpu1.data 12367.713151                       # average overall mshr miss latency
system.cpu1.dcache.overall_avg_mshr_miss_latency::total 12367.713151                       # average overall mshr miss latency
system.cpu1.dcache.replacements              56073616                       # number of replacements
system.cpu1.dcache.ReadReq_hits::.cpu1.data    197367285                       # number of ReadReq hits
system.cpu1.dcache.ReadReq_hits::total      197367285                       # number of ReadReq hits
system.cpu1.dcache.ReadReq_misses::.cpu1.data     46632396                       # number of ReadReq misses
system.cpu1.dcache.ReadReq_misses::total     46632396                       # number of ReadReq misses
system.cpu1.dcache.ReadReq_miss_latency::.cpu1.data 552992890230                       # number of ReadReq miss cycles
system.cpu1.dcache.ReadReq_miss_latency::total 552992890230                       # number of ReadReq miss cycles
system.cpu1.dcache.ReadReq_accesses::.cpu1.data    243999681                       # number of ReadReq accesses(hits+misses)
system.cpu1.dcache.ReadReq_accesses::total    243999681                       # number of ReadReq accesses(hits+misses)
system.cpu1.dcache.ReadReq_miss_rate::.cpu1.data     0.191117                       # miss rate for ReadReq accesses
system.cpu1.dcache.ReadReq_miss_rate::total     0.191117                       # miss rate for ReadReq accesses
system.cpu1.dcache.ReadReq_avg_miss_latency::.cpu1.data 11858.556233                       # average ReadReq miss latency
system.cpu1.dcache.ReadReq_avg_miss_latency::total 11858.556233                       # average ReadReq miss latency
system.cpu1.dcache.ReadReq_mshr_misses::.cpu1.data     46632396                       # number of ReadReq MSHR misses
system.cpu1.dcache.ReadReq_mshr_misses::total     46632396                       # number of ReadReq MSHR misses
system.cpu1.dcache.ReadReq_mshr_miss_latency::.cpu1.data 521935714494                       # number of ReadReq MSHR miss cycles
system.cpu1.dcache.ReadReq_mshr_miss_latency::total 521935714494                       # number of ReadReq MSHR miss cycles
system.cpu1.dcache.ReadReq_mshr_miss_rate::.cpu1.data     0.191117                       # mshr miss rate for ReadReq accesses
system.cpu1.dcache.ReadReq_mshr_miss_rate::total     0.191117                       # mshr miss rate for ReadReq accesses
system.cpu1.dcache.ReadReq_avg_mshr_miss_latency::.cpu1.data 11192.556233                       # average ReadReq mshr miss latency
system.cpu1.dcache.ReadReq_avg_mshr_miss_latency::total 11192.556233                       # average ReadReq mshr miss latency
system.cpu1.dcache.WriteReq_hits::.cpu1.data    100326489                       # number of WriteReq hits
system.cpu1.dcache.WriteReq_hits::total     100326489                       # number of WriteReq hits
system.cpu1.dcache.WriteReq_misses::.cpu1.data      9084498                       # number of WriteReq misses
system.cpu1.dcache.WriteReq_misses::total      9084498                       # number of WriteReq misses
[...]
system.mem_ctrls.wrQLenPdf::113                     0                       # What write queue length does an incoming req see
system.mem_ctrls.wrQLenPdf::114                     0                       # What write queue length does an incoming req see
system.mem_ctrls.wrQLenPdf::115                     0                       # What write queue length does an incoming req see
system.mem_ctrls.wrQLenPdf::116                     0                       # What write queue length does an incoming req see
system.mem_ctrls.wrQLenPdf::117                     0                       # What write queue length does an incoming req see
system.mem_ctrls.wrQLenPdf::118                     0                       # What write queue length does an incoming req see
system.mem_ctrls.wrQLenPdf::119                     0                       # What write queue length does an incoming req see
system.mem_ctrls.wrQLenPdf::120                     0                       # What write queue length does an incoming req see
system.mem_ctrls.wrQLenPdf::121                     0                       # What write queue length does an incoming req see
system.mem_ctrls.wrQLenPdf::122                     0                       # What write queue length does an incoming req see
system.mem_ctrls.wrQLenPdf::123                     0                       # What write queue length does an incoming req see
system.mem_ctrls.wrQLenPdf::124                     0                       # What write queue length does an incoming req see
system.mem_ctrls.wrQLenPdf::125                     0                       # What write queue length does an incoming req see
system.mem_ctrls.wrQLenPdf::126                     0                       # What write queue length does an incoming req see
system.mem_ctrls.wrQLenPdf::127                     0                       # What write queue length does an incoming req see
system.mem_ctrls.bytesPerActivate::samples      1923568                       # Bytes accessed per row activation
system.mem_ctrls.bytesPerActivate::mean            64                       # Bytes accessed per row activation
system.mem_ctrls.bytesPerActivate::gmean    64.000000                       # Bytes accessed per row activation
system.mem_ctrls.bytesPerActivate::64-71      1923568    100.00%    100.00% # Bytes accessed per row activation
system.mem_ctrls.bytesPerActivate::total      1923568                       # Bytes accessed per row activation
system.mem_ctrls.rdPerTurnAround::samples        36565                       # Reads before turning the bus around for writes
system.mem_ctrls.rdPerTurnAround::mean      36.227567                       # Reads before turning the bus around for writes
system.mem_ctrls.rdPerTurnAround::gmean     21.448465                       # Reads before turning the bus around for writes
system.mem_ctrls.rdPerTurnAround::stdev   1023.852333                       # Reads before turning the bus around for writes
system.mem_ctrls.rdPerTurnAround::0-4095        36564    100.00%    100.00% # Reads before turning the bus around for writes
system.mem_ctrls.rdPerTurnAround::192512-196607            1      0.00%    100.00% # Reads before turning the bus around for writes
system.mem_ctrls.rdPerTurnAround::total         36565                       # Reads before turning the bus around for writes
system.mem_ctrls.wrPerTurnAround::samples        36565                       # Writes before turning the bus around for reads
system.mem_ctrls.wrPerTurnAround::mean      16.378942                       # Writes before turning the bus around for reads
system.mem_ctrls.wrPerTurnAround::gmean     16.359948                       # Writes before turning the bus around for reads
system.mem_ctrls.wrPerTurnAround::stdev      0.811042                       # Writes before turning the bus around for reads
system.mem_ctrls.wrPerTurnAround::16            29822     81.56%     81.56% # Writes before turning the bus around for reads
system.mem_ctrls.wrPerTurnAround::17              228      0.62%     82.18% # Writes before turning the bus around for reads
system.mem_ctrls.wrPerTurnAround::18             5929     16.21%     98.40% # Writes before turning the bus around for reads
system.mem_ctrls.wrPerTurnAround::19              574      1.57%     99.97% # Writes before turning the bus around for reads
system.mem_ctrls.wrPerTurnAround::20               12      0.03%    100.00% # Writes before turning the bus around for reads
system.mem_ctrls.wrPerTurnAround::total         36565                       # Writes before turning the bus around for reads
system.mem_ctrls.bytesReadDRAM               84779008                       # Total number of bytes read from DRAM
system.mem_ctrls.bytesReadWrQ                    2048                       # Total number of bytes read from write queue
system.mem_ctrls.bytesWritten                38329344                       # Total number of bytes written to DRAM
system.mem_ctrls.bytesReadSys                84781056                       # Total read bytes from the system interface side
system.mem_ctrls.bytesWrittenSys             38332672                       # Total written bytes from the system interface side
system.mem_ctrls.avgRdBW                        47.76                       # Average DRAM read bandwidth in MiByte/s
system.mem_ctrls.avgWrBW                        21.59                       # Average achieved write bandwidth in MiByte/s
system.mem_ctrls.avgRdBWSys                     47.76                       # Average system read bandwidth in MiByte/s
system.mem_ctrls.avgWrBWSys                     21.59                       # Average system write bandwidth in MiByte/s
system.mem_ctrls.peakBW                      19207.00                       # Theoretical peak bandwidth in MiByte/s
system.mem_ctrls.busUtil                         0.36                       # Data bus utilization in percentage
system.mem_ctrls.busUtilRead                     0.25                       # Data bus utilization in percentage for reads
system.mem_ctrls.busUtilWrite                    0.11                       # Data bus utilization in percentage for writes
system.mem_ctrls.totGap                  1773307561023                       # Total gap between requests
system.mem_ctrls.avgGap                     921844.26                       # Average gap between requests
system.mem_ctrls.masterReadBytes::.cpu0.inst        28736                       # Per-master bytes read from memory
system.mem_ctrls.masterReadBytes::.cpu0.data     22238464                       # Per-master bytes read from memory
system.mem_ctrls.masterReadBytes::.cpu1.inst       191552                       # Per-master bytes read from memory
system.mem_ctrls.masterReadBytes::.cpu1.data     62320256                       # Per-master bytes read from memory
system.mem_ctrls.masterWriteBytes::.writebacks     38329344                       # Per-master bytes write to memory
system.mem_ctrls.masterReadRate::.cpu0.inst 16187.873034826120                       # Per-master bytes read from memory rate (Bytes/sec)
system.mem_ctrls.masterReadRate::.cpu0.data 12527611.070488287136                       # Per-master bytes read from memory rate (Bytes/sec)
system.mem_ctrls.masterReadRate::.cpu1.inst 107907.135842393269                       # Per-master bytes read from memory rate (Bytes/sec)
system.mem_ctrls.masterReadRate::.cpu1.data 35106917.860031343997                       # Per-master bytes read from memory rate (Bytes/sec)
system.mem_ctrls.masterWriteRate::.writebacks 21592098.906604062766                       # Per-master bytes write to memory rate (Bytes/sec)
system.mem_ctrls.masterReadAccesses::.cpu0.inst          449                       # Per-master read serviced memory accesses
system.mem_ctrls.masterReadAccesses::.cpu0.data       347476                       # Per-master read serviced memory accesses
system.mem_ctrls.masterReadAccesses::.cpu1.inst         2993                       # Per-master read serviced memory accesses
system.mem_ctrls.masterReadAccesses::.cpu1.data       973786                       # Per-master read serviced memory accesses
system.mem_ctrls.masterWriteAccesses::.writebacks       598948                       # Per-master write serviced memory accesses
system.mem_ctrls.masterReadTotalLat::.cpu0.inst     16089818                       # Per-master read total memory access latency
system.mem_ctrls.masterReadTotalLat::.cpu0.data  13986844404                       # Per-master read total memory access latency
system.mem_ctrls.masterReadTotalLat::.cpu1.inst    114457854                       # Per-master read total memory access latency
system.mem_ctrls.masterReadTotalLat::.cpu1.data  38309383489                       # Per-master read total memory access latency
system.mem_ctrls.masterWriteTotalLat::.writebacks 92760709487099                       # Per-master write total memory access latency
system.mem_ctrls.masterReadAvgLat::.cpu0.inst     35834.78                       # Per-master read average memory access latency
system.mem_ctrls.masterReadAvgLat::.cpu0.data     40252.69                       # Per-master read average memory access latency
system.mem_ctrls.masterReadAvgLat::.cpu1.inst     38241.85                       # Per-master read average memory access latency
system.mem_ctrls.masterReadAvgLat::.cpu1.data     39340.66                       # Per-master read average memory access latency
system.mem_ctrls.masterWriteAvgLat::.writebacks 154872725.99                       # Per-master write average memory access latency
system.mem_ctrls.pageHitRate                     0.00                       # Row buffer hit rate, read and write combined
system.mem_ctrls.rank1.actEnergy         1499809396.174652                       # Energy for activate commands per rank (pJ)
system.mem_ctrls.rank1.preEnergy         2647740434.018279                       # Energy for precharge commands per rank (pJ)
system.mem_ctrls.rank1.readEnergy        1816687346.277529                       # Energy for read commands per rank (pJ)
system.mem_ctrls.rank1.writeEnergy       706485372.768014                       # Energy for write commands per rank (pJ)
system.mem_ctrls.rank1.refreshEnergy     154093713598.029572                       # Energy for refresh commands per rank (pJ)
system.mem_ctrls.rank1.actBackEnergy     47273753577.676086                       # Energy for active background per rank (pJ)
system.mem_ctrls.rank1.preBackEnergy     546775323678.875427                       # Energy for precharge background per rank (pJ)
system.mem_ctrls.rank1.actPowerDownEnergy            0                       # Energy for active power-down per rank (pJ)
system.mem_ctrls.rank1.prePowerDownEnergy            0                       # Energy for precharge power-down per rank (pJ)
system.mem_ctrls.rank1.selfRefreshEnergy            0                       # Energy for self refresh per rank (pJ)
system.mem_ctrls.rank1.totalEnergy       754813513407.007690                       # Total energy per rank (pJ)
system.mem_ctrls.rank1.averagePower        425.209678                       # Core power per rank (mW)
system.mem_ctrls.rank1.totalIdleTime                0                       # Total Idle time Per DRAM Rank
system.mem_ctrls.rank1.memoryStateTime::IDLE 1663850581337                       # Time in different power states
system.mem_ctrls.rank1.memoryStateTime::REF  79799005077                       # Time in different power states
system.mem_ctrls.rank1.memoryStateTime::SREF            0                       # Time in different power states
system.mem_ctrls.rank1.memoryStateTime::PRE_PDN            0                       # Time in different power states
system.mem_ctrls.rank1.memoryStateTime::ACT  31506416983                       # Time in different power states
system.mem_ctrls.rank1.memoryStateTime::ACT_PDN            0                       # Time in different power states
system.mem_ctrls.rank0.actEnergy         1499756377.390639                       # Energy for activate commands per rank (pJ)
system.mem_ctrls.rank0.preEnergy         2647646835.472684                       # Energy for precharge commands per rank (pJ)
system.mem_ctrls.rank0.readEnergy        1816758661.739931                       # Energy for read commands per rank (pJ)
system.mem_ctrls.rank0.writeEnergy       706343829.408013                       # Energy for write commands per rank (pJ)
system.mem_ctrls.rank0.refreshEnergy     154093713598.029572                       # Energy for refresh commands per rank (pJ)
system.mem_ctrls.rank0.actBackEnergy     47269793492.344345                       # Energy for active background per rank (pJ)
system.mem_ctrls.rank0.preBackEnergy     546778057544.888733                       # Energy for precharge background per rank (pJ)
system.mem_ctrls.rank0.actPowerDownEnergy            0                       # Energy for active power-down per rank (pJ)
system.mem_ctrls.rank0.prePowerDownEnergy            0                       # Energy for precharge power-down per rank (pJ)
system.mem_ctrls.rank0.selfRefreshEnergy            0                       # Energy for self refresh per rank (pJ)
system.mem_ctrls.rank0.totalEnergy       754812070342.455811                       # Total energy per rank (pJ)
system.mem_ctrls.rank0.averagePower        425.208866                       # Core power per rank (mW)
system.mem_ctrls.rank0.totalIdleTime                0                       # Total Idle time Per DRAM Rank
system.mem_ctrls.rank0.memoryStateTime::IDLE 1663858122491                       # Time in different power states
system.mem_ctrls.rank0.memoryStateTime::REF  79799005077                       # Time in different power states
system.mem_ctrls.rank0.memoryStateTime::SREF            0                       # Time in different power states
system.mem_ctrls.rank0.memoryStateTime::PRE_PDN            0                       # Time in different power states
system.mem_ctrls.rank0.memoryStateTime::ACT  31498875829                       # Time in different power states
system.mem_ctrls.rank0.memoryStateTime::ACT_PDN            0                       # Time in different power states
system.cpu_clk_domain.clock                       333                       # Clock period in ticks
system.tol2bus.pwrStateResidencyTicks::UNDEFINED 1775156003397                       # Cumulative time (in ticks) in various power states
system.tol2bus.trans_dist::ReadResp          47342032                       # Transaction distribution
system.tol2bus.trans_dist::WritebackDirty     48827503                       # Transaction distribution
system.tol2bus.trans_dist::WritebackClean         4303                       # Transaction distribution
system.tol2bus.trans_dist::CleanEvict         8657206                       # Transaction distribution
system.tol2bus.trans_dist::ReadExReq          9084754                       # Transaction distribution
system.tol2bus.trans_dist::ReadExResp         9084754                       # Transaction distribution
system.tol2bus.trans_dist::ReadCleanReq          5246                       # Transaction distribution
system.tol2bus.trans_dist::ReadSharedReq     47336786                       # Transaction distribution
system.tol2bus.pkt_count_system.cpu0.icache.mem_side::system.l2.cpu_side          916                       # Packet count per connected master and slave (bytes)
system.tol2bus.pkt_count_system.cpu0.dcache.mem_side::system.l2.cpu_side      1043740                       # Packet count per connected master and slave (bytes)
system.tol2bus.pkt_count_system.cpu1.icache.mem_side::system.l2.cpu_side        13879                       # Packet count per connected master and slave (bytes)
system.tol2bus.pkt_count_system.cpu1.dcache.mem_side::system.l2.cpu_side    168220864                       # Packet count per connected master and slave (bytes)
system.tol2bus.pkt_count::total             169279399                       # Packet count per connected master and slave (bytes)
system.tol2bus.pkt_size_system.cpu0.icache.mem_side::system.l2.cpu_side        29888                       # Cumulative packet size per connected master and slave (bytes)
system.tol2bus.pkt_size_system.cpu0.dcache.mem_side::system.l2.cpu_side     22299520                       # Cumulative packet size per connected master and slave (bytes)
system.tol2bus.pkt_size_system.cpu1.icache.mem_side::system.l2.cpu_side       581248                       # Cumulative packet size per connected master and slave (bytes)
system.tol2bus.pkt_size_system.cpu1.dcache.mem_side::system.l2.cpu_side   6675306560                       # Cumulative packet size per connected master and slave (bytes)
system.tol2bus.pkt_size::total             6698217216                       # Cumulative packet size per connected master and slave (bytes)
system.tol2bus.snoops                         1063185                       # Total snoops (count)
system.tol2bus.snoopTraffic                  38332672                       # Total snoop traffic (bytes)
system.tol2bus.snoop_fanout::samples         57489971                       # Request fanout histogram
system.tol2bus.snoop_fanout::mean            0.000025                       # Request fanout histogram
system.tol2bus.snoop_fanout::stdev           0.005038                       # Request fanout histogram
system.tol2bus.snoop_fanout::underflows             0      0.00%      0.00% # Request fanout histogram
system.tol2bus.snoop_fanout::0               57488512    100.00%    100.00% # Request fanout histogram
system.tol2bus.snoop_fanout::1                   1459      0.00%    100.00% # Request fanout histogram
system.tol2bus.snoop_fanout::2                      0      0.00%    100.00% # Request fanout histogram
system.tol2bus.snoop_fanout::3                      0      0.00%    100.00% # Request fanout histogram
system.tol2bus.snoop_fanout::4                      0      0.00%    100.00% # Request fanout histogram
system.tol2bus.snoop_fanout::5                      0      0.00%    100.00% # Request fanout histogram
system.tol2bus.snoop_fanout::6                      0      0.00%    100.00% # Request fanout histogram
system.tol2bus.snoop_fanout::7                      0      0.00%    100.00% # Request fanout histogram
system.tol2bus.snoop_fanout::8                      0      0.00%    100.00% # Request fanout histogram
system.tol2bus.snoop_fanout::overflows              0      0.00%    100.00% # Request fanout histogram
system.tol2bus.snoop_fanout::min_value              0                       # Request fanout histogram
system.tol2bus.snoop_fanout::max_value              1                       # Request fanout histogram
system.tol2bus.snoop_fanout::total           57489971                       # Request fanout histogram
system.tol2bus.reqLayer0.occupancy        69703003557                       # Layer occupancy (ticks)
system.tol2bus.reqLayer0.utilization              3.9                       # Layer utilization (%)
system.tol2bus.respLayer5.occupancy       56017550376                       # Layer occupancy (ticks)
system.tol2bus.respLayer5.utilization             3.2                       # Layer utilization (%)
system.tol2bus.respLayer4.occupancy           4792203                       # Layer occupancy (ticks)
system.tol2bus.respLayer4.utilization             0.0                       # Layer utilization (%)
system.tol2bus.respLayer1.occupancy         348814412                       # Layer occupancy (ticks)
system.tol2bus.respLayer1.utilization             0.0                       # Layer utilization (%)
system.tol2bus.respLayer0.occupancy            448551                       # Layer occupancy (ticks)
system.tol2bus.respLayer0.utilization             0.0                       # Layer utilization (%)

---------- End Simulation Statistics   ----------
