
---------- Begin Simulation Statistics ----------
final_tick                               1461998029176                       # Number of ticks from beginning of simulation (restored from checkpoints and never reset)
host_inst_rate                                 918004                       # Simulator instruction rate (inst/s)
host_mem_usage                                8625392                       # Number of bytes of host memory used
host_op_rate                                  1360546                       # Simulator op (including micro ops) rate (op/s)
host_seconds                                  1119.59                       # Real time elapsed on the host
host_tick_rate                             1305833954                       # Simulator tick rate (ticks/s)
sim_freq                                 1000000000000                       # Frequency of simulated ticks
sim_insts                                  1027788100                       # Number of instructions simulated
sim_ops                                    1523252744                       # Number of ops (including micro ops) simulated
sim_seconds                                  1.461998                       # Number of seconds simulated
sim_ticks                                1461998029176                       # Number of ticks simulated
system.cpu0.Branches                          2780018                       # Number of branches fetched
system.cpu0.committedInsts                   27788099                       # Number of instructions committed
system.cpu0.committedOps                     52797721                       # Number of ops (including micro ops) committed
system.cpu0.dtb.rdAccesses                   11113063                       # TLB accesses on read requests
system.cpu0.dtb.rdMisses                         5446                       # TLB misses on read requests
system.cpu0.dtb.wrAccesses                    5557395                       # TLB accesses on write requests
system.cpu0.dtb.wrMisses                            8                       # TLB misses on write requests
system.cpu0.idle_fraction                    0.945917                       # Percentage of idle cycles
system.cpu0.itb.rdAccesses                          0                       # TLB accesses on read requests
system.cpu0.itb.rdMisses                            0                       # TLB misses on read requests
system.cpu0.itb.wrAccesses                   38902351                       # TLB accesses on write requests
system.cpu0.itb.wrMisses                           46                       # TLB misses on write requests
system.cpu0.not_idle_fraction                0.054083                       # Percentage of non-idle cycles
system.cpu0.numCycles                       237445373                       # number of cpu cycles simulated
system.cpu0.numWorkItemsCompleted                   0                       # number of work items this cpu completed
system.cpu0.numWorkItemsStarted                     0                       # number of work items this cpu started
system.cpu0.num_busy_cycles              12841769.443802                       # Number of busy cycles
system.cpu0.num_cc_register_reads            13899961                       # number of times the CC registers were read
system.cpu0.num_cc_register_writes           16672913                       # number of times the CC registers were written
system.cpu0.num_conditional_control_insts      2779471                       # number of instructions that are conditional controls
system.cpu0.num_fp_alu_accesses                  1214                       # Number of float alu accesses
system.cpu0.num_fp_insts                         1214                       # number of float instructions
system.cpu0.num_fp_register_reads                1401                       # number of times the floating registers were read
system.cpu0.num_fp_register_writes                679                       # number of times the floating registers were written
system.cpu0.num_func_calls                        384                       # number of times a function call or return occured
system.cpu0.num_idle_cycles              224603603.556198                       # Number of idle cycles
system.cpu0.num_int_alu_accesses             52796880                       # Number of integer alu accesses
system.cpu0.num_int_insts                    52796880                       # number of integer instructions
system.cpu0.num_int_register_reads          105592520                       # number of times the integer registers were read
system.cpu0.num_int_register_writes          44459432                       # number of times the integer registers were written
system.cpu0.num_load_insts                   11113060                       # Number of load instructions
system.cpu0.num_mem_refs                     16670454                       # number of memory refs
system.cpu0.num_store_insts                   5557394                       # Number of store instructions
system.cpu0.num_vec_alu_accesses                    0                       # Number of vector alu accesses
system.cpu0.num_vec_insts                           0                       # number of vector instructions
system.cpu0.num_vec_register_reads                  0                       # number of times the vector registers were read
system.cpu0.num_vec_register_writes                 0                       # number of times the vector registers were written
system.cpu0.op_class::No_OpClass                  336      0.00%      0.00% # Class of executed instruction
system.cpu0.op_class::IntAlu                 36126368     68.42%     68.42% # Class of executed instruction
system.cpu0.op_class::IntMult                       5      0.00%     68.42% # Class of executed instruction
system.cpu0.op_class::IntDiv                       28      0.00%     68.42% # Class of executed instruction
system.cpu0.op_class::FloatAdd                    144      0.00%     68.43% # Class of executed instruction
system.cpu0.op_class::FloatCmp                      0      0.00%     68.43% # Class of executed instruction
system.cpu0.op_class::FloatCvt                      0      0.00%     68.43% # Class of executed instruction
system.cpu0.op_class::FloatMult                     0      0.00%     68.43% # Class of executed instruction
system.cpu0.op_class::FloatMultAcc                  0      0.00%     68.43% # Class of executed instruction
system.cpu0.op_class::FloatDiv                      0      0.00%     68.43% # Class of executed instruction
system.cpu0.op_class::FloatMisc                     0      0.00%     68.43% # Class of executed instruction
system.cpu0.op_class::FloatSqrt                     0      0.00%     68.43% # Class of executed instruction
system.cpu0.op_class::SimdAdd                       0      0.00%     68.43% # Class of executed instruction
system.cpu0.op_class::SimdAddAcc                    0      0.00%     68.43% # Class of executed instruction
system.cpu0.op_class::SimdAlu                     104      0.00%     68.43% # Class of executed instruction
system.cpu0.op_class::SimdCmp                       0      0.00%     68.43% # Class of executed instruction
system.cpu0.op_class::SimdCvt                      54      0.00%     68.43% # Class of executed instruction
system.cpu0.op_class::SimdMisc                    228      0.00%     68.43% # Class of executed instruction
system.cpu0.op_class::SimdMult                      0      0.00%     68.43% # Class of executed instruction
system.cpu0.op_class::SimdMultAcc                   0      0.00%     68.43% # Class of executed instruction
system.cpu0.op_class::SimdShift                     0      0.00%     68.43% # Class of executed instruction
system.cpu0.op_class::SimdShiftAcc                  0      0.00%     68.43% # Class of executed instruction
system.cpu0.op_class::SimdDiv                       0      0.00%     68.43% # Class of executed instruction
system.cpu0.op_class::SimdSqrt                      0      0.00%     68.43% # Class of executed instruction
system.cpu0.op_class::SimdFloatAdd                  0      0.00%     68.43% # Class of executed instruction
system.cpu0.op_class::SimdFloatAlu                  0      0.00%     68.43% # Class of executed instruction
system.cpu0.op_class::SimdFloatCmp                  0      0.00%     68.43% # Class of executed instruction
system.cpu0.op_class::SimdFloatCvt                  0      0.00%     68.43% # Class of executed instruction
system.cpu0.op_class::SimdFloatDiv                  0      0.00%     68.43% # Class of executed instruction
system.cpu0.op_class::SimdFloatMisc                 0      0.00%     68.43% # Class of executed instruction
system.cpu0.op_class::SimdFloatMult                 0      0.00%     68.43% # Class of executed instruction
system.cpu0.op_class::SimdFloatMultAcc              0      0.00%     68.43% # Class of executed instruction
system.cpu0.op_class::SimdFloatSqrt                 0      0.00%     68.43% # Class of executed instruction
system.cpu0.op_class::SimdReduceAdd                 0      0.00%     68.43% # Class of executed instruction
system.cpu0.op_class::SimdReduceAlu                 0      0.00%     68.43% # Class of executed instruction
system.cpu0.op_class::SimdReduceCmp                 0      0.00%     68.43% # Class of executed instruction
system.cpu0.op_class::SimdFloatReduceAdd            0      0.00%     68.43% # Class of executed instruction
system.cpu0.op_class::SimdFloatReduceCmp            0      0.00%     68.43% # Class of executed instruction
system.cpu0.op_class::SimdAes                       0      0.00%     68.43% # Class of executed instruction
system.cpu0.op_class::SimdAesMix                    0      0.00%     68.43% # Class of executed instruction
system.cpu0.op_class::SimdSha1Hash                  0      0.00%     68.43% # Class of executed instruction
system.cpu0.op_class::SimdSha1Hash2                 0      0.00%     68.43% # Class of executed instruction
system.cpu0.op_class::SimdSha256Hash                0      0.00%     68.43% # Class of executed instruction
system.cpu0.op_class::SimdSha256Hash2               0      0.00%     68.43% # Class of executed instruction
system.cpu0.op_class::SimdShaSigma2                 0      0.00%     68.43% # Class of executed instruction
system.cpu0.op_class::SimdShaSigma3                 0      0.00%     68.43% # Class of executed instruction
system.cpu0.op_class::SimdPredAlu                   0      0.00%     68.43% # Class of executed instruction
system.cpu0.op_class::MemRead                11113000     21.05%     89.47% # Class of executed instruction
system.cpu0.op_class::MemWrite                5556913     10.52%    100.00% # Class of executed instruction
system.cpu0.op_class::FloatMemRead                 60      0.00%    100.00% # Class of executed instruction
system.cpu0.op_class::FloatMemWrite               481      0.00%    100.00% # Class of executed instruction
system.cpu0.op_class::IprAccess                     0      0.00%    100.00% # Class of executed instruction
system.cpu0.op_class::InstPrefetch                  0      0.00%    100.00% # Class of executed instruction
system.cpu0.op_class::total                  52797721                       # Class of executed instruction
system.cpu0.workload.numSyscalls                   12                       # Number of system calls
system.cpu1.Branches                        116148867                       # Number of branches fetched
system.cpu1.committedInsts                 1000000001                       # Number of instructions committed
system.cpu1.committedOps                   1470455023                       # Number of ops (including micro ops) committed
system.cpu1.dtb.rdAccesses                  152663212                       # TLB accesses on read requests
system.cpu1.dtb.rdMisses                        98031                       # TLB misses on read requests
system.cpu1.dtb.wrAccesses                   66167671                       # TLB accesses on write requests
system.cpu1.dtb.wrMisses                       137567                       # TLB misses on write requests
system.cpu1.idle_fraction                           0                       # Percentage of idle cycles
system.cpu1.itb.rdAccesses                          0                       # TLB accesses on read requests
system.cpu1.itb.rdMisses                            0                       # TLB misses on read requests
system.cpu1.itb.wrAccesses                 1315786198                       # TLB accesses on write requests
system.cpu1.itb.wrMisses                           63                       # TLB misses on write requests
system.cpu1.not_idle_fraction                       1                       # Percentage of non-idle cycles
system.cpu1.numCycles                      4390384472                       # number of cpu cycles simulated
system.cpu1.numWorkItemsCompleted                   0                       # number of work items this cpu completed
system.cpu1.numWorkItemsStarted                     0                       # number of work items this cpu started
system.cpu1.num_busy_cycles                4390384472                       # Number of busy cycles
system.cpu1.num_cc_register_reads           707772717                       # number of times the CC registers were read
system.cpu1.num_cc_register_writes          841933082                       # number of times the CC registers were written
system.cpu1.num_conditional_control_insts     98544066                       # number of instructions that are conditional controls
system.cpu1.num_fp_alu_accesses               5266799                       # Number of float alu accesses
system.cpu1.num_fp_insts                      5266799                       # number of float instructions
system.cpu1.num_fp_register_reads             2649026                       # number of times the floating registers were read
system.cpu1.num_fp_register_writes            2643720                       # number of times the floating registers were written
system.cpu1.num_func_calls                     524458                       # number of times a function call or return occured
system.cpu1.num_idle_cycles                         0                       # Number of idle cycles
system.cpu1.num_int_alu_accesses           1469917108                       # Number of integer alu accesses
system.cpu1.num_int_insts                  1469917108                       # number of integer instructions
system.cpu1.num_int_register_reads         3014824309                       # number of times the integer registers were read
system.cpu1.num_int_register_writes        1321244081                       # number of times the integer registers were written
system.cpu1.num_load_insts                  152586979                       # Number of load instructions
system.cpu1.num_mem_refs                    218679635                       # number of memory refs
system.cpu1.num_store_insts                  66092656                       # Number of store instructions
system.cpu1.num_vec_alu_accesses                    0                       # Number of vector alu accesses
system.cpu1.num_vec_insts                           0                       # number of vector instructions
system.cpu1.num_vec_register_reads                  0                       # number of times the vector registers were read
system.cpu1.num_vec_register_writes                 0                       # number of times the vector registers were written
system.cpu1.op_class::No_OpClass               517472      0.04%      0.04% # Class of executed instruction
system.cpu1.op_class::IntAlu               1215042269     82.63%     82.67% # Class of executed instruction
system.cpu1.op_class::IntMult                36191513      2.46%     85.13% # Class of executed instruction
system.cpu1.op_class::IntDiv                       42      0.00%     85.13% # Class of executed instruction
system.cpu1.op_class::FloatAdd                  11187      0.00%     85.13% # Class of executed instruction
system.cpu1.op_class::FloatCmp                      0      0.00%     85.13% # Class of executed instruction
system.cpu1.op_class::FloatCvt                      0      0.00%     85.13% # Class of executed instruction
system.cpu1.op_class::FloatMult                     0      0.00%     85.13% # Class of executed instruction
system.cpu1.op_class::FloatMultAcc                  0      0.00%     85.13% # Class of executed instruction
system.cpu1.op_class::FloatDiv                      0      0.00%     85.13% # Class of executed instruction
system.cpu1.op_class::FloatMisc                     0      0.00%     85.13% # Class of executed instruction
system.cpu1.op_class::FloatSqrt                     0      0.00%     85.13% # Class of executed instruction
system.cpu1.op_class::SimdAdd                       0      0.00%     85.13% # Class of executed instruction
system.cpu1.op_class::SimdAddAcc                    0      0.00%     85.13% # Class of executed instruction
system.cpu1.op_class::SimdAlu                     166      0.00%     85.13% # Class of executed instruction
system.cpu1.op_class::SimdCmp                      18      0.00%     85.13% # Class of executed instruction
system.cpu1.op_class::SimdCvt                     124      0.00%     85.13% # Class of executed instruction
system.cpu1.op_class::SimdMisc                  12597      0.00%     85.13% # Class of executed instruction
system.cpu1.op_class::SimdMult                      0      0.00%     85.13% # Class of executed instruction
system.cpu1.op_class::SimdMultAcc                   0      0.00%     85.13% # Class of executed instruction
system.cpu1.op_class::SimdShift                     0      0.00%     85.13% # Class of executed instruction
system.cpu1.op_class::SimdShiftAcc                  0      0.00%     85.13% # Class of executed instruction
system.cpu1.op_class::SimdDiv                       0      0.00%     85.13% # Class of executed instruction
system.cpu1.op_class::SimdSqrt                      0      0.00%     85.13% # Class of executed instruction
system.cpu1.op_class::SimdFloatAdd                  0      0.00%     85.13% # Class of executed instruction
system.cpu1.op_class::SimdFloatAlu                  0      0.00%     85.13% # Class of executed instruction
system.cpu1.op_class::SimdFloatCmp                  0      0.00%     85.13% # Class of executed instruction
system.cpu1.op_class::SimdFloatCvt                  0      0.00%     85.13% # Class of executed instruction
system.cpu1.op_class::SimdFloatDiv                  0      0.00%     85.13% # Class of executed instruction
system.cpu1.op_class::SimdFloatMisc                 0      0.00%     85.13% # Class of executed instruction
system.cpu1.op_class::SimdFloatMult                 0      0.00%     85.13% # Class of executed instruction
system.cpu1.op_class::SimdFloatMultAcc              0      0.00%     85.13% # Class of executed instruction
system.cpu1.op_class::SimdFloatSqrt                 0      0.00%     85.13% # Class of executed instruction
system.cpu1.op_class::SimdReduceAdd                 0      0.00%     85.13% # Class of executed instruction
system.cpu1.op_class::SimdReduceAlu                 0      0.00%     85.13% # Class of executed instruction
system.cpu1.op_class::SimdReduceCmp                 0      0.00%     85.13% # Class of executed instruction
system.cpu1.op_class::SimdFloatReduceAdd            0      0.00%     85.13% # Class of executed instruction
system.cpu1.op_class::SimdFloatReduceCmp            0      0.00%     85.13% # Class of executed instruction
system.cpu1.op_class::SimdAes                       0      0.00%     85.13% # Class of executed instruction
system.cpu1.op_class::SimdAesMix                    0      0.00%     85.13% # Class of executed instruction
system.cpu1.op_class::SimdSha1Hash                  0      0.00%     85.13% # Class of executed instruction
system.cpu1.op_class::SimdSha1Hash2                 0      0.00%     85.13% # Class of executed instruction
system.cpu1.op_class::SimdSha256Hash                0      0.00%     85.13% # Class of executed instruction
system.cpu1.op_class::SimdSha256Hash2               0      0.00%     85.13% # Class of executed instruction
system.cpu1.op_class::SimdShaSigma2                 0      0.00%     85.13% # Class of executed instruction
system.cpu1.op_class::SimdShaSigma3                 0      0.00%     85.13% # Class of executed instruction
system.cpu1.op_class::SimdPredAlu                   0      0.00%     85.13% # Class of executed instruction
system.cpu1.op_class::MemRead               149971074     10.20%     95.33% # Class of executed instruction
system.cpu1.op_class::MemWrite               63469681      4.32%     99.64% # Class of executed instruction
system.cpu1.op_class::FloatMemRead            2615905      0.18%     99.82% # Class of executed instruction
system.cpu1.op_class::FloatMemWrite           2622975      0.18%    100.00% # Class of executed instruction
system.cpu1.op_class::IprAccess                     0      0.00%    100.00% # Class of executed instruction
system.cpu1.op_class::InstPrefetch                  0      0.00%    100.00% # Class of executed instruction
system.cpu1.op_class::total                1470455023                       # Class of executed instruction
system.cpu1.workload.numSyscalls                   19                       # Number of system calls
system.membus.snoop_filter.hit_multi_requests            0                       # Number of requests hitting in the snoop filter with multiple (>1) holders of the requested data.
system.membus.snoop_filter.hit_multi_snoops            0                       # Number of snoops hitting in the snoop filter with multiple (>1) holders of the requested data.
system.membus.snoop_filter.hit_single_requests       889432                       # Number of requests hitting in the snoop filter with a single holder of the requested data.
system.membus.snoop_filter.hit_single_snoops            0                       # Number of snoops hitting in the snoop filter with a single holder of the requested data.
system.membus.snoop_filter.tot_requests       2041738                       # Total number of requests made to the snoop filter.
system.membus.snoop_filter.tot_snoops               0                       # Total number of snoops made to the snoop filter.
system.tol2bus.snoop_filter.hit_multi_requests            0                       # Number of requests hitting in the snoop filter with multiple (>1) holders of the requested data.
system.tol2bus.snoop_filter.hit_multi_snoops            0                       # Number of snoops hitting in the snoop filter with multiple (>1) holders of the requested data.
system.tol2bus.snoop_filter.hit_single_requests     39493594                       # Number of requests hitting in the snoop filter with a single holder of the requested data.
system.tol2bus.snoop_filter.hit_single_snoops          806                       # Number of snoops hitting in the snoop filter with a single holder of the requested data.
system.tol2bus.snoop_filter.tot_requests     78988147                       # Total number of requests made to the snoop filter.
system.tol2bus.snoop_filter.tot_snoops            806                       # Total number of snoops made to the snoop filter.
system.membus.pwrStateResidencyTicks::UNDEFINED 1461998029176                       # Cumulative time (in ticks) in various power states
system.membus.trans_dist::ReadResp             402929                       # Transaction distribution
system.membus.trans_dist::WritebackDirty       604906                       # Transaction distribution
system.membus.trans_dist::CleanEvict           284526                       # Transaction distribution
system.membus.trans_dist::ReadExReq            749377                       # Transaction distribution
system.membus.trans_dist::ReadExResp           749377                       # Transaction distribution
system.membus.trans_dist::ReadSharedReq        402929                       # Transaction distribution
system.membus.pkt_count_system.l2.mem_side::system.mem_ctrls.port      3194044                       # Packet count per connected master and slave (bytes)
system.membus.pkt_count_system.l2.mem_side::total      3194044                       # Packet count per connected master and slave (bytes)
system.membus.pkt_count::total                3194044                       # Packet count per connected master and slave (bytes)
system.membus.pkt_size_system.l2.mem_side::system.mem_ctrls.port    112461568                       # Cumulative packet size per connected master and slave (bytes)
system.membus.pkt_size_system.l2.mem_side::total    112461568                       # Cumulative packet size per connected master and slave (bytes)
system.membus.pkt_size::total               112461568                       # Cumulative packet size per connected master and slave (bytes)
system.membus.snoops                                0                       # Total snoops (count)
system.membus.snoopTraffic                          0                       # Total snoop traffic (bytes)
system.membus.snoop_fanout::samples           1152306                       # Request fanout histogram
system.membus.snoop_fanout::mean                    0                       # Request fanout histogram
system.membus.snoop_fanout::stdev                   0                       # Request fanout histogram
system.membus.snoop_fanout::underflows              0      0.00%      0.00% # Request fanout histogram
system.membus.snoop_fanout::0                 1152306    100.00%    100.00% # Request fanout histogram
system.membus.snoop_fanout::1                       0      0.00%    100.00% # Request fanout histogram
system.membus.snoop_fanout::overflows               0      0.00%    100.00% # Request fanout histogram
system.membus.snoop_fanout::min_value               0                       # Request fanout histogram
system.membus.snoop_fanout::max_value               0                       # Request fanout histogram
system.membus.snoop_fanout::total             1152306                       # Request fanout histogram
system.membus.reqLayer4.occupancy          5663214625                       # Layer occupancy (ticks)
system.membus.reqLayer4.utilization               0.4                       # Layer utilization (%)
system.membus.respLayer1.occupancy         6157901563                       # Layer occupancy (ticks)
system.membus.respLayer1.utilization              0.4                       # Layer utilization (%)
system.voltage_domain.voltage                       1                       # Voltage in Volts
system.clk_domain.clock                          1000                       # Clock period in ticks
system.cpu0.numPwrStateTransitions                  1                       # Number of power state transitions
system.cpu0.pwrStateResidencyTicks::ON   1461998029176                       # Cumulative time (in ticks) in various power states
system.cpu0.icache.pwrStateResidencyTicks::UNDEFINED 1461998029176                       # Cumulative time (in ticks) in various power states
system.cpu0.icache.demand_hits::.cpu0.inst     38901902                       # number of demand (read+write) hits
system.cpu0.icache.demand_hits::total        38901902                       # number of demand (read+write) hits
system.cpu0.icache.overall_hits::.cpu0.inst     38901902                       # number of overall hits
system.cpu0.icache.overall_hits::total       38901902                       # number of overall hits
system.cpu0.icache.demand_misses::.cpu0.inst          449                       # number of demand (read+write) misses
system.cpu0.icache.demand_misses::total           449                       # number of demand (read+write) misses
system.cpu0.icache.overall_misses::.cpu0.inst          449                       # number of overall misses
system.cpu0.icache.overall_misses::total          449                       # number of overall misses
system.cpu0.icache.demand_miss_latency::.cpu0.inst     37760202                       # number of demand (read+write) miss cycles
system.cpu0.icache.demand_miss_latency::total     37760202                       # number of demand (read+write) miss cycles
system.cpu0.icache.overall_miss_latency::.cpu0.inst     37760202                       # number of overall miss cycles
system.cpu0.icache.overall_miss_latency::total     37760202                       # number of overall miss cycles
system.cpu0.icache.demand_accesses::.cpu0.inst     38902351                       # number of demand (read+write) accesses
system.cpu0.icache.demand_accesses::total     38902351                       # number of demand (read+write) accesses
system.cpu0.icache.overall_accesses::.cpu0.inst     38902351                       # number of overall (read+write) accesses
system.cpu0.icache.overall_accesses::total     38902351                       # number of overall (read+write) accesses
system.cpu0.icache.demand_miss_rate::.cpu0.inst     0.000012                       # miss rate for demand accesses
system.cpu0.icache.demand_miss_rate::total     0.000012                       # miss rate for demand accesses
system.cpu0.icache.overall_miss_rate::.cpu0.inst     0.000012                       # miss rate for overall accesses
system.cpu0.icache.overall_miss_rate::total     0.000012                       # miss rate for overall accesses
system.cpu0.icache.demand_avg_miss_latency::.cpu0.inst 84098.445434                       # average overall miss latency
system.cpu0.icache.demand_avg_miss_latency::total 84098.445434                       # average overall miss latency
system.cpu0.icache.overall_avg_miss_latency::.cpu0.inst 84098.445434                       # average overall miss latency
system.cpu0.icache.overall_avg_miss_latency::total 84098.445434                       # average overall miss latency
system.cpu0.icache.blocked_cycles::no_mshrs            0                       # number of cycles access was blocked
system.cpu0.icache.blocked_cycles::no_targets            0                       # number of cycles access was blocked
system.cpu0.icache.blocked::no_mshrs                0                       # number of cycles access was blocked
system.cpu0.icache.blocked::no_targets              0                       # number of cycles access was blocked
system.cpu0.icache.avg_blocked_cycles::no_mshrs          nan                       # average number of cycles each access was blocked
system.cpu0.icache.avg_blocked_cycles::no_targets          nan                       # average number of cycles each access was blocked
system.cpu0.icache.writebacks::.writebacks           18                       # number of writebacks
system.cpu0.icache.writebacks::total               18                       # number of writebacks
system.cpu0.icache.demand_mshr_misses::.cpu0.inst          449                       # number of demand (read+write) MSHR misses
system.cpu0.icache.demand_mshr_misses::total          449                       # number of demand (read+write) MSHR misses
system.cpu0.icache.overall_mshr_misses::.cpu0.inst          449                       # number of overall MSHR misses
system.cpu0.icache.overall_mshr_misses::total          449                       # number of overall MSHR misses
system.cpu0.icache.demand_mshr_miss_latency::.cpu0.inst     37461168                       # number of demand (read+write) MSHR miss cycles
system.cpu0.icache.demand_mshr_miss_latency::total     37461168                       # number of demand (read+write) MSHR miss cycles
system.cpu0.icache.overall_mshr_miss_latency::.cpu0.inst     37461168                       # number of overall MSHR miss cycles
system.cpu0.icache.overall_mshr_miss_latency::total     37461168                       # number of overall MSHR miss cycles
system.cpu0.icache.demand_mshr_miss_rate::.cpu0.inst     0.000012                       # mshr miss rate for demand accesses
system.cpu0.icache.demand_mshr_miss_rate::total     0.000012                       # mshr miss rate for demand accesses
system.cpu0.icache.overall_mshr_miss_rate::.cpu0.inst     0.000012                       # mshr miss rate for overall accesses
system.cpu0.icache.overall_mshr_miss_rate::total     0.000012                       # mshr miss rate for overall accesses
system.cpu0.icache.demand_avg_mshr_miss_latency::.cpu0.inst 83432.445434                       # average overall mshr miss latency
system.cpu0.icache.demand_avg_mshr_miss_latency::total 83432.445434                       # average overall mshr miss latency
system.cpu0.icache.overall_avg_mshr_miss_latency::.cpu0.inst 83432.445434                       # average overall mshr miss latency
system.cpu0.icache.overall_avg_mshr_miss_latency::total 83432.445434                       # average overall mshr miss latency
system.cpu0.icache.replacements                    18                       # number of replacements
system.cpu0.icache.ReadReq_hits::.cpu0.inst     38901902                       # number of ReadReq hits
system.cpu0.icache.ReadReq_hits::total       38901902                       # number of ReadReq hits
system.cpu0.icache.ReadReq_misses::.cpu0.inst          449                       # number of ReadReq misses
system.cpu0.icache.ReadReq_misses::total          449                       # number of ReadReq misses
system.cpu0.icache.ReadReq_miss_latency::.cpu0.inst     37760202                       # number of ReadReq miss cycles
system.cpu0.icache.ReadReq_miss_latency::total     37760202                       # number of ReadReq miss cycles
system.cpu0.icache.ReadReq_accesses::.cpu0.inst     38902351                       # number of ReadReq accesses(hits+misses)
system.cpu0.icache.ReadReq_accesses::total     38902351                       # number of ReadReq accesses(hits+misses)
system.cpu0.icache.ReadReq_miss_rate::.cpu0.inst     0.000012                       # miss rate for ReadReq accesses
system.cpu0.icache.ReadReq_miss_rate::total     0.000012                       # miss rate for ReadReq accesses
system.cpu0.icache.ReadReq_avg_miss_latency::.cpu0.inst 84098.445434                       # average ReadReq miss latency
system.cpu0.icache.ReadReq_avg_miss_latency::total 84098.445434                       # average ReadReq miss latency
system.cpu0.icache.ReadReq_mshr_misses::.cpu0.inst          449                       # number of ReadReq MSHR misses
system.cpu0.icache.ReadReq_mshr_misses::total          449                       # number of ReadReq MSHR misses
system.cpu0.icache.ReadReq_mshr_miss_latency::.cpu0.inst     37461168                       # number of ReadReq MSHR miss cycles
system.cpu0.icache.ReadReq_mshr_miss_latency::total     37461168                       # number of ReadReq MSHR miss cycles
system.cpu0.icache.ReadReq_mshr_miss_rate::.cpu0.inst     0.000012                       # mshr miss rate for ReadReq accesses
system.cpu0.icache.ReadReq_mshr_miss_rate::total     0.000012                       # mshr miss rate for ReadReq accesses
system.cpu0.icache.ReadReq_avg_mshr_miss_latency::.cpu0.inst 83432.445434                       # average ReadReq mshr miss latency
system.cpu0.icache.ReadReq_avg_mshr_miss_latency::total 83432.445434                       # average ReadReq mshr miss latency
system.cpu0.icache.tags.pwrStateResidencyTicks::UNDEFINED 1461998029176                       # Cumulative time (in ticks) in various power states
system.cpu0.icache.tags.tagsinuse          426.504520                       # Cycle average of tags in use
system.cpu0.icache.tags.total_refs           38902351                       # Total number of references to valid blocks.
system.cpu0.icache.tags.sampled_refs              449                       # Sample count of references to valid blocks.
system.cpu0.icache.tags.avg_refs         86642.207127                       # Average number of references to valid blocks.
system.cpu0.icache.tags.warmup_cycle            83250                       # Cycle when the warmup percentage was hit.
system.cpu0.icache.tags.occ_blocks::.cpu0.inst   426.504520                       # Average occupied blocks per requestor
system.cpu0.icache.tags.occ_percent::.cpu0.inst     0.833017                       # Average percentage of cache occupancy
system.cpu0.icache.tags.occ_percent::total     0.833017                       # Average percentage of cache occupancy
system.cpu0.icache.tags.occ_task_id_blocks::1024          431                       # Occupied blocks per task id
system.cpu0.icache.tags.age_task_id_blocks_1024::4          431                       # Occupied blocks per task id
system.cpu0.icache.tags.occ_task_id_percent::1024     0.841797                       # Percentage of cache occupancy per task id
system.cpu0.icache.tags.tag_accesses        311219257                       # Number of tag accesses
system.cpu0.icache.tags.data_accesses       311219257                       # Number of data accesses
system.cpu0.icache.tags.repl_invalid                0                       # Number of initial replacements
system.cpu0.icache.tags.repl_valid_tag              0                       # Number of local replacements
system.cpu0.icache.tags.repl_valid_data             0                       # Number of global replacements
system.cpu0.dtb.walker.pwrStateResidencyTicks::UNDEFINED 1461998029176                       # Cumulative time (in ticks) in various power states
system.cpu0.interrupts.clk_domain.clock          5328                       # Clock period in ticks
system.cpu0.itb_walker_cache.pwrStateResidencyTicks::UNDEFINED 1461998029176                       # Cumulative time (in ticks) in various power states
system.cpu0.itb_walker_cache.blocked_cycles::no_mshrs            0                       # number of cycles access was blocked
system.cpu0.itb_walker_cache.blocked_cycles::no_targets            0                       # number of cycles access was blocked
system.cpu0.itb_walker_cache.blocked::no_mshrs            0                       # number of cycles access was blocked
system.cpu0.itb_walker_cache.blocked::no_targets            0                       # number of cycles access was blocked
system.cpu0.itb_walker_cache.avg_blocked_cycles::no_mshrs          nan                       # average number of cycles each access was blocked
system.cpu0.itb_walker_cache.avg_blocked_cycles::no_targets          nan                       # average number of cycles each access was blocked
system.cpu0.itb_walker_cache.replacements            0                       # number of replacements
system.cpu0.itb_walker_cache.tags.pwrStateResidencyTicks::UNDEFINED 1461998029176                       # Cumulative time (in ticks) in various power states
system.cpu0.itb_walker_cache.tags.tagsinuse            0                       # Cycle average of tags in use
system.cpu0.itb_walker_cache.tags.total_refs            0                       # Total number of references to valid blocks.
system.cpu0.itb_walker_cache.tags.sampled_refs            0                       # Sample count of references to valid blocks.
system.cpu0.itb_walker_cache.tags.avg_refs          nan                       # Average number of references to valid blocks.
system.cpu0.itb_walker_cache.tags.warmup_cycle            0                       # Cycle when the warmup percentage was hit.
system.cpu0.itb_walker_cache.tags.tag_accesses            0                       # Number of tag accesses
system.cpu0.itb_walker_cache.tags.data_accesses            0                       # Number of data accesses
system.cpu0.itb_walker_cache.tags.repl_invalid            0                       # Number of initial replacements
system.cpu0.itb_walker_cache.tags.repl_valid_tag            0                       # Number of local replacements
system.cpu0.itb_walker_cache.tags.repl_valid_data            0                       # Number of global replacements
system.cpu0.itb.walker.pwrStateResidencyTicks::UNDEFINED 1461998029176                       # Cumulative time (in ticks) in various power states
system.cpu0.dtb_walker_cache.pwrStateResidencyTicks::UNDEFINED 1461998029176                       # Cumulative time (in ticks) in various power states
system.cpu0.dtb_walker_cache.blocked_cycles::no_mshrs            0                       # number of cycles access was blocked
system.cpu0.dtb_walker_cache.blocked_cycles::no_targets            0                       # number of cycles access was blocked
system.cpu0.dtb_walker_cache.blocked::no_mshrs            0                       # number of cycles access was blocked
system.cpu0.dtb_walker_cache.blocked::no_targets            0                       # number of cycles access was blocked
system.cpu0.dtb_walker_cache.avg_blocked_cycles::no_mshrs          nan                       # average number of cycles each access was blocked
system.cpu0.dtb_walker_cache.avg_blocked_cycles::no_targets          nan                       # average number of cycles each access was blocked
system.cpu0.dtb_walker_cache.replacements            0                       # number of replacements
system.cpu0.dtb_walker_cache.tags.pwrStateResidencyTicks::UNDEFINED 1461998029176                       # Cumulative time (in ticks) in various power states
system.cpu0.dtb_walker_cache.tags.tagsinuse            0                       # Cycle average of tags in use
system.cpu0.dtb_walker_cache.tags.total_refs            0                       # Total number of references to valid blocks.
system.cpu0.dtb_walker_cache.tags.sampled_refs            0                       # Sample count of references to valid blocks.
system.cpu0.dtb_walker_cache.tags.avg_refs          nan                       # Average number of references to valid blocks.
system.cpu0.dtb_walker_cache.tags.warmup_cycle            0                       # Cycle when the warmup percentage was hit.
system.cpu0.dtb_walker_cache.tags.tag_accesses            0                       # Number of tag accesses
system.cpu0.dtb_walker_cache.tags.data_accesses            0                       # Number of data accesses
system.cpu0.dtb_walker_cache.tags.repl_invalid            0                       # Number of initial replacements
system.cpu0.dtb_walker_cache.tags.repl_valid_tag            0                       # Number of local replacements
system.cpu0.dtb_walker_cache.tags.repl_valid_data            0                       # Number of global replacements
system.cpu0.dcache.pwrStateResidencyTicks::UNDEFINED 1461998029176                       # Cumulative time (in ticks) in various power states
system.cpu0.dcache.demand_hits::.cpu0.data     16322542                       # number of demand (read+write) hits
system.cpu0.dcache.demand_hits::total        16322542                       # number of demand (read+write) hits
system.cpu0.dcache.overall_hits::.cpu0.data     16322542                       # number of overall hits
system.cpu0.dcache.overall_hits::total       16322542                       # number of overall hits
system.cpu0.dcache.demand_misses::.cpu0.data       347916                       # number of demand (read+write) misses
system.cpu0.dcache.demand_misses::total        347916                       # number of demand (read+write) misses
system.cpu0.dcache.overall_misses::.cpu0.data       347916                       # number of overall misses
system.cpu0.dcache.overall_misses::total       347916                       # number of overall misses
system.cpu0.dcache.demand_miss_latency::.cpu0.data  42252090615                       # number of demand (read+write) miss cycles
system.cpu0.dcache.demand_miss_latency::total  42252090615                       # number of demand (read+write) miss cycles
system.cpu0.dcache.overall_miss_latency::.cpu0.data  42252090615                       # number of overall miss cycles
system.cpu0.dcache.overall_miss_latency::total  42252090615                       # number of overall miss cycles
system.cpu0.dcache.demand_accesses::.cpu0.data     16670458                       # number of demand (read+write) accesses
system.cpu0.dcache.demand_accesses::total     16670458                       # number of demand (read+write) accesses
system.cpu0.dcache.overall_accesses::.cpu0.data     16670458                       # number of overall (read+write) accesses
system.cpu0.dcache.overall_accesses::total     16670458                       # number of overall (read+write) accesses
system.cpu0.dcache.demand_miss_rate::.cpu0.data     0.020870                       # miss rate for demand accesses
system.cpu0.dcache.demand_miss_rate::total     0.020870                       # miss rate for demand accesses
system.cpu0.dcache.overall_miss_rate::.cpu0.data     0.020870                       # miss rate for overall accesses
system.cpu0.dcache.overall_miss_rate::total     0.020870                       # miss rate for overall accesses
system.cpu0.dcache.demand_avg_miss_latency::.cpu0.data 121443.367408                       # average overall miss latency
system.cpu0.dcache.demand_avg_miss_latency::total 121443.367408                       # average overall miss latency
system.cpu0.dcache.overall_avg_miss_latency::.cpu0.data 121443.367408                       # average overall miss latency
system.cpu0.dcache.overall_avg_miss_latency::total 121443.367408                       # average overall miss latency
system.cpu0.dcache.blocked_cycles::no_mshrs            0                       # number of cycles access was blocked
system.cpu0.dcache.blocked_cycles::no_targets            0                       # number of cycles access was blocked
system.cpu0.dcache.blocked::no_mshrs                0                       # number of cycles access was blocked
system.cpu0.dcache.blocked::no_targets              0                       # number of cycles access was blocked
system.cpu0.dcache.avg_blocked_cycles::no_mshrs          nan                       # average number of cycles each access was blocked
system.cpu0.dcache.avg_blocked_cycles::no_targets          nan                       # average number of cycles each access was blocked
system.cpu0.dcache.writebacks::.writebacks          531                       # number of writebacks
system.cpu0.dcache.writebacks::total              531                       # number of writebacks
system.cpu0.dcache.demand_mshr_misses::.cpu0.data       347916                       # number of demand (read+write) MSHR misses
system.cpu0.dcache.demand_mshr_misses::total       347916                       # number of demand (read+write) MSHR misses
system.cpu0.dcache.overall_mshr_misses::.cpu0.data       347916                       # number of overall MSHR misses
system.cpu0.dcache.overall_mshr_misses::total       347916                       # number of overall MSHR misses
system.cpu0.dcache.demand_mshr_miss_latency::.cpu0.data  42020378559                       # number of demand (read+write) MSHR miss cycles
system.cpu0.dcache.demand_mshr_miss_latency::total  42020378559                       # number of demand (read+write) MSHR miss cycles
system.cpu0.dcache.overall_mshr_miss_latency::.cpu0.data  42020378559                       # number of overall MSHR miss cycles
system.cpu0.dcache.overall_mshr_miss_latency::total  42020378559                       # number of overall MSHR miss cycles
system.cpu0.dcache.demand_mshr_miss_rate::.cpu0.data     0.020870                       # mshr miss rate for demand accesses
system.cpu0.dcache.demand_mshr_miss_rate::total     0.020870                       # mshr miss rate for demand accesses
system.cpu0.dcache.overall_mshr_miss_rate::.cpu0.data     0.020870                       # mshr miss rate for overall accesses
system.cpu0.dcache.overall_mshr_miss_rate::total     0.020870                       # mshr miss rate for overall accesses
system.cpu0.dcache.demand_avg_mshr_miss_latency::.cpu0.data 120777.367408                       # average overall mshr miss latency
system.cpu0.dcache.demand_avg_mshr_miss_latency::total 120777.367408                       # average overall mshr miss latency
system.cpu0.dcache.overall_avg_mshr_miss_latency::.cpu0.data 120777.367408                       # average overall mshr miss latency
system.cpu0.dcache.overall_avg_mshr_miss_latency::total 120777.367408                       # average overall mshr miss latency
system.cpu0.dcache.replacements                347908                       # number of replacements
system.cpu0.dcache.ReadReq_hits::.cpu0.data     10765403                       # number of ReadReq hits
system.cpu0.dcache.ReadReq_hits::total       10765403                       # number of ReadReq hits
system.cpu0.dcache.ReadReq_misses::.cpu0.data       347660                       # number of ReadReq misses
system.cpu0.dcache.ReadReq_misses::total       347660                       # number of ReadReq misses
system.cpu0.dcache.ReadReq_miss_latency::.cpu0.data  42240941442                       # number of ReadReq miss cycles
system.cpu0.dcache.ReadReq_miss_latency::total  42240941442                       # number of ReadReq miss cycles
system.cpu0.dcache.ReadReq_accesses::.cpu0.data     11113063                       # number of ReadReq accesses(hits+misses)
system.cpu0.dcache.ReadReq_accesses::total     11113063                       # number of ReadReq accesses(hits+misses)
system.cpu0.dcache.ReadReq_miss_rate::.cpu0.data     0.031284                       # miss rate for ReadReq accesses
system.cpu0.dcache.ReadReq_miss_rate::total     0.031284                       # miss rate for ReadReq accesses
system.cpu0.dcache.ReadReq_avg_miss_latency::.cpu0.data 121500.723241                       # average ReadReq miss latency
system.cpu0.dcache.ReadReq_avg_miss_latency::total 121500.723241                       # average ReadReq miss latency
system.cpu0.dcache.ReadReq_mshr_misses::.cpu0.data       347660                       # number of ReadReq MSHR misses
system.cpu0.dcache.ReadReq_mshr_misses::total       347660                       # number of ReadReq MSHR misses
system.cpu0.dcache.ReadReq_mshr_miss_latency::.cpu0.data  42009399882                       # number of ReadReq MSHR miss cycles
system.cpu0.dcache.ReadReq_mshr_miss_latency::total  42009399882                       # number of ReadReq MSHR miss cycles
system.cpu0.dcache.ReadReq_mshr_miss_rate::.cpu0.data     0.031284                       # mshr miss rate for ReadReq accesses
system.cpu0.dcache.ReadReq_mshr_miss_rate::total     0.031284                       # mshr miss rate for ReadReq accesses
system.cpu0.dcache.ReadReq_avg_mshr_miss_latency::.cpu0.data 120834.723241                       # average ReadReq mshr miss latency
system.cpu0.dcache.ReadReq_avg_mshr_miss_latency::total 120834.723241                       # average ReadReq mshr miss latency
system.cpu0.dcache.WriteReq_hits::.cpu0.data      5557139                       # number of WriteReq hits
system.cpu0.dcache.WriteReq_hits::total       5557139                       # number of WriteReq hits
system.cpu0.dcache.WriteReq_misses::.cpu0.data          256                       # number of WriteReq misses
system.cpu0.dcache.WriteReq_misses::total          256                       # number of WriteReq misses
system.cpu0.dcache.WriteReq_miss_latency::.cpu0.data     11149173                       # number of WriteReq miss cycles
system.cpu0.dcache.WriteReq_miss_latency::total     11149173                       # number of WriteReq miss cycles
system.cpu0.dcache.WriteReq_accesses::.cpu0.data      5557395                       # number of WriteReq accesses(hits+misses)
system.cpu0.dcache.WriteReq_accesses::total      5557395                       # number of WriteReq accesses(hits+misses)
system.cpu0.dcache.WriteReq_miss_rate::.cpu0.data     0.000046                       # miss rate for WriteReq accesses
system.cpu0.dcache.WriteReq_miss_rate::total     0.000046                       # miss rate for WriteReq accesses
system.cpu0.dcache.WriteReq_avg_miss_latency::.cpu0.data 43551.457031                       # average WriteReq miss latency
system.cpu0.dcache.WriteReq_avg_miss_latency::total 43551.457031                       # average WriteReq miss latency
system.cpu0.dcache.WriteReq_mshr_misses::.cpu0.data          256                       # number of WriteReq MSHR misses
system.cpu0.dcache.WriteReq_mshr_misses::total          256                       # number of WriteReq MSHR misses
system.cpu0.dcache.WriteReq_mshr_miss_latency::.cpu0.data     10978677                       # number of WriteReq MSHR miss cycles
system.cpu0.dcache.WriteReq_mshr_miss_latency::total     10978677                       # number of WriteReq MSHR miss cycles
system.cpu0.dcache.WriteReq_mshr_miss_rate::.cpu0.data     0.000046                       # mshr miss rate for WriteReq accesses
system.cpu0.dcache.WriteReq_mshr_miss_rate::total     0.000046                       # mshr miss rate for WriteReq accesses
system.cpu0.dcache.WriteReq_avg_mshr_miss_latency::.cpu0.data 42885.457031                       # average WriteReq mshr miss latency
system.cpu0.dcache.WriteReq_avg_mshr_miss_latency::total 42885.457031                       # average WriteReq mshr miss latency
system.cpu0.dcache.tags.pwrStateResidencyTicks::UNDEFINED 1461998029176                       # Cumulative time (in ticks) in various power states
system.cpu0.dcache.tags.tagsinuse            7.999996                       # Cycle average of tags in use
system.cpu0.dcache.tags.total_refs           16670458                       # Total number of references to valid blocks.
system.cpu0.dcache.tags.sampled_refs           347916                       # Sample count of references to valid blocks.
system.cpu0.dcache.tags.avg_refs            47.915181                       # Average number of references to valid blocks.
system.cpu0.dcache.tags.warmup_cycle           165168                       # Cycle when the warmup percentage was hit.
system.cpu0.dcache.tags.occ_blocks::.cpu0.data     7.999996                       # Average occupied blocks per requestor
system.cpu0.dcache.tags.occ_percent::.cpu0.data     1.000000                       # Average percentage of cache occupancy
system.cpu0.dcache.tags.occ_percent::total     1.000000                       # Average percentage of cache occupancy
system.cpu0.dcache.tags.occ_task_id_blocks::1024            8                       # Occupied blocks per task id
system.cpu0.dcache.tags.age_task_id_blocks_1024::4            8                       # Occupied blocks per task id
system.cpu0.dcache.tags.occ_task_id_percent::1024            1                       # Percentage of cache occupancy per task id
system.cpu0.dcache.tags.tag_accesses        133711580                       # Number of tag accesses
system.cpu0.dcache.tags.data_accesses       133711580                       # Number of data accesses
system.cpu0.dcache.tags.repl_invalid                0                       # Number of initial replacements
system.cpu0.dcache.tags.repl_valid_tag              0                       # Number of local replacements
system.cpu0.dcache.tags.repl_valid_data             0                       # Number of global replacements
system.cpu1.numPwrStateTransitions                  1                       # Number of power state transitions
system.cpu1.pwrStateResidencyTicks::ON   1461998029176                       # Cumulative time (in ticks) in various power states
system.cpu1.icache.pwrStateResidencyTicks::UNDEFINED 1461998029176                       # Cumulative time (in ticks) in various power states
system.cpu1.icache.demand_hits::.cpu1.inst   1315785242                       # number of demand (read+write) hits
system.cpu1.icache.demand_hits::total      1315785242                       # number of demand (read+write) hits
system.cpu1.icache.overall_hits::.cpu1.inst   1315785242                       # number of overall hits
system.cpu1.icache.overall_hits::total     1315785242                       # number of overall hits
system.cpu1.icache.demand_misses::.cpu1.inst          956                       # number of demand (read+write) misses
system.cpu1.icache.demand_misses::total           956                       # number of demand (read+write) misses
system.cpu1.icache.overall_misses::.cpu1.inst          956                       # number of overall misses
system.cpu1.icache.overall_misses::total          956                       # number of overall misses
system.cpu1.icache.demand_miss_latency::.cpu1.inst     81568683                       # number of demand (read+write) miss cycles
system.cpu1.icache.demand_miss_latency::total     81568683                       # number of demand (read+write) miss cycles
system.cpu1.icache.overall_miss_latency::.cpu1.inst     81568683                       # number of overall miss cycles
system.cpu1.icache.overall_miss_latency::total     81568683                       # number of overall miss cycles
system.cpu1.icache.demand_accesses::.cpu1.inst   1315786198                       # number of demand (read+write) accesses
system.cpu1.icache.demand_accesses::total   1315786198                       # number of demand (read+write) accesses
system.cpu1.icache.overall_accesses::.cpu1.inst   1315786198                       # number of overall (read+write) accesses
system.cpu1.icache.overall_accesses::total   1315786198                       # number of overall (read+write) accesses
system.cpu1.icache.demand_miss_rate::.cpu1.inst     0.000001                       # miss rate for demand accesses
system.cpu1.icache.demand_miss_rate::total     0.000001                       # miss rate for demand accesses
system.cpu1.icache.overall_miss_rate::.cpu1.inst     0.000001                       # miss rate for overall accesses
system.cpu1.icache.overall_miss_rate::total     0.000001                       # miss rate for overall accesses
system.cpu1.icache.demand_avg_miss_latency::.cpu1.inst 85322.890167                       # average overall miss latency
system.cpu1.icache.demand_avg_miss_latency::total 85322.890167                       # average overall miss latency
system.cpu1.icache.overall_avg_miss_latency::.cpu1.inst 85322.890167                       # average overall miss latency
system.cpu1.icache.overall_avg_miss_latency::total 85322.890167                       # average overall miss latency
system.cpu1.icache.blocked_cycles::no_mshrs            0                       # number of cycles access was blocked
system.cpu1.icache.blocked_cycles::no_targets            0                       # number of cycles access was blocked
system.cpu1.icache.blocked::no_mshrs                0                       # number of cycles access was blocked
system.cpu1.icache.blocked::no_targets              0                       # number of cycles access was blocked
system.cpu1.icache.avg_blocked_cycles::no_mshrs          nan                       # average number of cycles each access was blocked
system.cpu1.icache.avg_blocked_cycles::no_targets          nan                       # average number of cycles each access was blocked
system.cpu1.icache.writebacks::.writebacks          444                       # number of writebacks
system.cpu1.icache.writebacks::total              444                       # number of writebacks
system.cpu1.icache.demand_mshr_misses::.cpu1.inst          956                       # number of demand (read+write) MSHR misses
system.cpu1.icache.demand_mshr_misses::total          956                       # number of demand (read+write) MSHR misses
system.cpu1.icache.overall_mshr_misses::.cpu1.inst          956                       # number of overall MSHR misses
system.cpu1.icache.overall_mshr_misses::total          956                       # number of overall MSHR misses
system.cpu1.icache.demand_mshr_miss_latency::.cpu1.inst     80931987                       # number of demand (read+write) MSHR miss cycles
system.cpu1.icache.demand_mshr_miss_latency::total     80931987                       # number of demand (read+write) MSHR miss cycles
system.cpu1.icache.overall_mshr_miss_latency::.cpu1.inst     80931987                       # number of overall MSHR miss cycles
system.cpu1.icache.overall_mshr_miss_latency::total     80931987                       # number of overall MSHR miss cycles
system.cpu1.icache.demand_mshr_miss_rate::.cpu1.inst     0.000001                       # mshr miss rate for demand accesses
system.cpu1.icache.demand_mshr_miss_rate::total     0.000001                       # mshr miss rate for demand accesses
system.cpu1.icache.overall_mshr_miss_rate::.cpu1.inst     0.000001                       # mshr miss rate for overall accesses
system.cpu1.icache.overall_mshr_miss_rate::total     0.000001                       # mshr miss rate for overall accesses
system.cpu1.icache.demand_avg_mshr_miss_latency::.cpu1.inst 84656.890167                       # average overall mshr miss latency
system.cpu1.icache.demand_avg_mshr_miss_latency::total 84656.890167                       # average overall mshr miss latency
system.cpu1.icache.overall_avg_mshr_miss_latency::.cpu1.inst 84656.890167                       # average overall mshr miss latency
system.cpu1.icache.overall_avg_mshr_miss_latency::total 84656.890167                       # average overall mshr miss latency
system.cpu1.icache.replacements                   444                       # number of replacements
system.cpu1.icache.ReadReq_hits::.cpu1.inst   1315785242                       # number of ReadReq hits
system.cpu1.icache.ReadReq_hits::total     1315785242                       # number of ReadReq hits
system.cpu1.icache.ReadReq_misses::.cpu1.inst          956                       # number of ReadReq misses
system.cpu1.icache.ReadReq_misses::total          956                       # number of ReadReq misses
system.cpu1.icache.ReadReq_miss_latency::.cpu1.inst     81568683                       # number of ReadReq miss cycles
system.cpu1.icache.ReadReq_miss_latency::total     81568683                       # number of ReadReq miss cycles
system.cpu1.icache.ReadReq_accesses::.cpu1.inst   1315786198                       # number of ReadReq accesses(hits+misses)
system.cpu1.icache.ReadReq_accesses::total   1315786198                       # number of ReadReq accesses(hits+misses)
system.cpu1.icache.ReadReq_miss_rate::.cpu1.inst     0.000001                       # miss rate for ReadReq accesses
system.cpu1.icache.ReadReq_miss_rate::total     0.000001                       # miss rate for ReadReq accesses
system.cpu1.icache.ReadReq_avg_miss_latency::.cpu1.inst 85322.890167                       # average ReadReq miss latency
system.cpu1.icache.ReadReq_avg_miss_latency::total 85322.890167                       # average ReadReq miss latency
system.cpu1.icache.ReadReq_mshr_misses::.cpu1.inst          956                       # number of ReadReq MSHR misses
system.cpu1.icache.ReadReq_mshr_misses::total          956                       # number of ReadReq MSHR misses
system.cpu1.icache.ReadReq_mshr_miss_latency::.cpu1.inst     80931987                       # number of ReadReq MSHR miss cycles
system.cpu1.icache.ReadReq_mshr_miss_latency::total     80931987                       # number of ReadReq MSHR miss cycles
system.cpu1.icache.ReadReq_mshr_miss_rate::.cpu1.inst     0.000001                       # mshr miss rate for ReadReq accesses
system.cpu1.icache.ReadReq_mshr_miss_rate::total     0.000001                       # mshr miss rate for ReadReq accesses
system.cpu1.icache.ReadReq_avg_mshr_miss_latency::.cpu1.inst 84656.890167                       # average ReadReq mshr miss latency
system.cpu1.icache.ReadReq_avg_mshr_miss_latency::total 84656.890167                       # average ReadReq mshr miss latency
system.cpu1.icache.tags.pwrStateResidencyTicks::UNDEFINED 1461998029176                       # Cumulative time (in ticks) in various power states
system.cpu1.icache.tags.tagsinuse          509.460870                       # Cycle average of tags in use
system.cpu1.icache.tags.total_refs         1315786198                       # Total number of references to valid blocks.
system.cpu1.icache.tags.sampled_refs              956                       # Sample count of references to valid blocks.
system.cpu1.icache.tags.avg_refs         1376345.395397                       # Average number of references to valid blocks.
system.cpu1.icache.tags.warmup_cycle            88245                       # Cycle when the warmup percentage was hit.
system.cpu1.icache.tags.occ_blocks::.cpu1.inst   509.460870                       # Average occupied blocks per requestor
system.cpu1.icache.tags.occ_percent::.cpu1.inst     0.995041                       # Average percentage of cache occupancy
system.cpu1.icache.tags.occ_percent::total     0.995041                       # Average percentage of cache occupancy
system.cpu1.icache.tags.occ_task_id_blocks::1024          512                       # Occupied blocks per task id
system.cpu1.icache.tags.age_task_id_blocks_1024::4          512                       # Occupied blocks per task id
system.cpu1.icache.tags.occ_task_id_percent::1024            1                       # Percentage of cache occupancy per task id
system.cpu1.icache.tags.tag_accesses      10526290540                       # Number of tag accesses
system.cpu1.icache.tags.data_accesses     10526290540                       # Number of data accesses
system.cpu1.icache.tags.repl_invalid                0                       # Number of initial replacements
system.cpu1.icache.tags.repl_valid_tag              0                       # Number of local replacements
system.cpu1.icache.tags.repl_valid_data             0                       # Number of global replacements
system.cpu1.dtb.walker.pwrStateResidencyTicks::UNDEFINED 1461998029176                       # Cumulative time (in ticks) in various power states
system.cpu1.interrupts.clk_domain.clock          5328                       # Clock period in ticks
system.cpu1.itb_walker_cache.pwrStateResidencyTicks::UNDEFINED 1461998029176                       # Cumulative time (in ticks) in various power states
system.cpu1.itb_walker_cache.blocked_cycles::no_mshrs            0                       # number of cycles access was blocked
system.cpu1.itb_walker_cache.blocked_cycles::no_targets            0                       # number of cycles access was blocked
system.cpu1.itb_walker_cache.blocked::no_mshrs            0                       # number of cycles access was blocked
system.cpu1.itb_walker_cache.blocked::no_targets            0                       # number of cycles access was blocked
system.cpu1.itb_walker_cache.avg_blocked_cycles::no_mshrs          nan                       # average number of cycles each access was blocked
system.cpu1.itb_walker_cache.avg_blocked_cycles::no_targets          nan                       # average number of cycles each access was blocked
system.cpu1.itb_walker_cache.replacements            0                       # number of replacements
system.cpu1.itb_walker_cache.tags.pwrStateResidencyTicks::UNDEFINED 1461998029176                       # Cumulative time (in ticks) in various power states
system.cpu1.itb_walker_cache.tags.tagsinuse            0                       # Cycle average of tags in use
system.cpu1.itb_walker_cache.tags.total_refs            0                       # Total number of references to valid blocks.
system.cpu1.itb_walker_cache.tags.sampled_refs            0                       # Sample count of references to valid blocks.
system.cpu1.itb_walker_cache.tags.avg_refs          nan                       # Average number of references to valid blocks.
system.cpu1.itb_walker_cache.tags.warmup_cycle            0                       # Cycle when the warmup percentage was hit.
system.cpu1.itb_walker_cache.tags.tag_accesses            0                       # Number of tag accesses
system.cpu1.itb_walker_cache.tags.data_accesses            0                       # Number of data accesses
system.cpu1.itb_walker_cache.tags.repl_invalid            0                       # Number of initial replacements
system.cpu1.itb_walker_cache.tags.repl_valid_tag            0                       # Number of local replacements
system.cpu1.itb_walker_cache.tags.repl_valid_data            0                       # Number of global replacements
system.cpu1.itb.walker.pwrStateResidencyTicks::UNDEFINED 1461998029176                       # Cumulative time (in ticks) in various power states
system.cpu1.dtb_walker_cache.pwrStateResidencyTicks::UNDEFINED 1461998029176                       # Cumulative time (in ticks) in various power states
system.cpu1.dtb_walker_cache.blocked_cycles::no_mshrs            0                       # number of cycles access was blocked
system.cpu1.dtb_walker_cache.blocked_cycles::no_targets            0                       # number of cycles access was blocked
system.cpu1.dtb_walker_cache.blocked::no_mshrs            0                       # number of cycles access was blocked
system.cpu1.dtb_walker_cache.blocked::no_targets            0                       # number of cycles access was blocked
system.cpu1.dtb_walker_cache.avg_blocked_cycles::no_mshrs          nan                       # average number of cycles each access was blocked
system.cpu1.dtb_walker_cache.avg_blocked_cycles::no_targets          nan                       # average number of cycles each access was blocked
system.cpu1.dtb_walker_cache.replacements            0                       # number of replacements
system.cpu1.dtb_walker_cache.tags.pwrStateResidencyTicks::UNDEFINED 1461998029176                       # Cumulative time (in ticks) in various power states
system.cpu1.dtb_walker_cache.tags.tagsinuse            0                       # Cycle average of tags in use
system.cpu1.dtb_walker_cache.tags.total_refs            0                       # Total number of references to valid blocks.
system.cpu1.dtb_walker_cache.tags.sampled_refs            0                       # Sample count of references to valid blocks.
system.cpu1.dtb_walker_cache.tags.avg_refs          nan                       # Average number of references to valid blocks.
system.cpu1.dtb_walker_cache.tags.warmup_cycle            0                       # Cycle when the warmup percentage was hit.
system.cpu1.dtb_walker_cache.tags.tag_accesses            0                       # Number of tag accesses
system.cpu1.dtb_walker_cache.tags.data_accesses            0                       # Number of data accesses
system.cpu1.dtb_walker_cache.tags.repl_invalid            0                       # Number of initial replacements
system.cpu1.dtb_walker_cache.tags.repl_valid_tag            0                       # Number of local replacements
system.cpu1.dtb_walker_cache.tags.repl_valid_data            0                       # Number of global replacements
system.cpu1.dcache.pwrStateResidencyTicks::UNDEFINED 1461998029176                       # Cumulative time (in ticks) in various power states
system.cpu1.dcache.demand_hits::.cpu1.data    179685651                       # number of demand (read+write) hits
system.cpu1.dcache.demand_hits::total       179685651                       # number of demand (read+write) hits
system.cpu1.dcache.overall_hits::.cpu1.data    179685651                       # number of overall hits
system.cpu1.dcache.overall_hits::total      179685651                       # number of overall hits
system.cpu1.dcache.demand_misses::.cpu1.data     39145232                       # number of demand (read+write) misses
system.cpu1.dcache.demand_misses::total      39145232                       # number of demand (read+write) misses
system.cpu1.dcache.overall_misses::.cpu1.data     39145232                       # number of overall misses
system.cpu1.dcache.overall_misses::total     39145232                       # number of overall misses
system.cpu1.dcache.demand_miss_latency::.cpu1.data 466484889159                       # number of demand (read+write) miss cycles
system.cpu1.dcache.demand_miss_latency::total 466484889159                       # number of demand (read+write) miss cycles
system.cpu1.dcache.overall_miss_latency::.cpu1.data 466484889159                       # number of overall miss cycles
system.cpu1.dcache.overall_miss_latency::total 466484889159                       # number of overall miss cycles
system.cpu1.dcache.demand_accesses::.cpu1.data    218830883                       # number of demand (read+write) accesses
system.cpu1.dcache.demand_accesses::total    218830883                       # number of demand (read+write) accesses
system.cpu1.dcache.overall_accesses::.cpu1.data    218830883                       # number of overall (read+write) accesses
system.cpu1.dcache.overall_accesses::total    218830883                       # number of overall (read+write) accesses
system.cpu1.dcache.demand_miss_rate::.cpu1.data     0.178883                       # miss rate for demand accesses
system.cpu1.dcache.demand_miss_rate::total     0.178883                       # miss rate for demand accesses
system.cpu1.dcache.overall_miss_rate::.cpu1.data     0.178883                       # miss rate for overall accesses
system.cpu1.dcache.overall_miss_rate::total     0.178883                       # miss rate for overall accesses
system.cpu1.dcache.demand_avg_miss_latency::.cpu1.data 11916.774159                       # average overall miss latency
system.cpu1.dcache.demand_avg_miss_latency::total 11916.774159                       # average overall miss latency
system.cpu1.dcache.overall_avg_miss_latency::.cpu1.data 11916.774159                       # average overall miss latency
system.cpu1.dcache.overall_avg_miss_latency::total 11916.774159                       # average overall miss latency
system.cpu1.dcache.blocked_cycles::no_mshrs            0                       # number of cycles access was blocked
system.cpu1.dcache.blocked_cycles::no_targets            0                       # number of cycles access was blocked
system.cpu1.dcache.blocked::no_mshrs                0                       # number of cycles access was blocked
system.cpu1.dcache.blocked::no_targets              0                       # number of cycles access was blocked
system.cpu1.dcache.avg_blocked_cycles::no_mshrs          nan                       # average number of cycles each access was blocked
system.cpu1.dcache.avg_blocked_cycles::no_targets          nan                       # average number of cycles each access was blocked
system.cpu1.dcache.writebacks::.writebacks     28212485                       # number of writebacks
system.cpu1.dcache.writebacks::total         28212485                       # number of writebacks
system.cpu1.dcache.demand_mshr_misses::.cpu1.data     39145232                       # number of demand (read+write) MSHR misses
system.cpu1.dcache.demand_mshr_misses::total     39145232                       # number of demand (read+write) MSHR misses
system.cpu1.dcache.overall_mshr_misses::.cpu1.data     39145232                       # number of overall MSHR misses
system.cpu1.dcache.overall_mshr_misses::total     39145232                       # number of overall MSHR misses
system.cpu1.dcache.demand_mshr_miss_latency::.cpu1.data 440414164647                       # number of demand (read+write) MSHR miss cycles
system.cpu1.dcache.demand_mshr_miss_latency::total 440414164647                       # number of demand (read+write) MSHR miss cycles
system.cpu1.dcache.overall_mshr_miss_latency::.cpu1.data 440414164647                       # number of overall MSHR miss cycles
system.cpu1.dcache.overall_mshr_miss_latency::total 440414164647                       # number of overall MSHR miss cycles
system.cpu1.dcache.demand_mshr_miss_rate::.cpu1.data     0.178883                       # mshr miss rate for demand accesses
system.cpu1.dcache.demand_mshr_miss_rate::total     0.178883                       # mshr miss rate for demand accesses
system.cpu1.dcache.overall_mshr_miss_rate::.cpu1.data     0.178883                       # mshr miss rate for overall accesses
system.cpu1.dcache.overall_mshr_miss_rate::total     0.178883                       # mshr miss rate for overall accesses
system.cpu1.dcache.demand_avg_mshr_miss_latency::.cpu1.data 11250.774159                       # average overall mshr miss latency
system.cpu1.dcache.demand_avg_mshr_miss_latency::total 11250.774159                       # average overall mshr miss latency
system.cpu1.dcache.overall_avg_mshr_miss_latency::.cpu1.data 11250.774159                       # average overall mshr miss latency
system.cpu1.dcache.overall_avg_mshr_miss_latency::total 11250.774159                       # average overall mshr miss latency
system.cpu1.dcache.replacements              39145224                       # number of replacements
system.cpu1.dcache.ReadReq_hits::.cpu1.data    117379762                       # number of ReadReq hits
system.cpu1.dcache.ReadReq_hits::total      117379762                       # number of ReadReq hits
system.cpu1.dcache.ReadReq_misses::.cpu1.data     35283450                       # number of ReadReq misses
system.cpu1.dcache.ReadReq_misses::total     35283450                       # number of ReadReq misses
system.cpu1.dcache.ReadReq_miss_latency::.cpu1.data 356592489228                       # number of ReadReq miss cycles
system.cpu1.dcache.ReadReq_miss_latency::total 356592489228                       # number of ReadReq miss cycles
system.cpu1.dcache.ReadReq_accesses::.cpu1.data    152663212                       # number of ReadReq accesses(hits+misses)
system.cpu1.dcache.ReadReq_accesses::total    152663212                       # number of ReadReq accesses(hits+misses)
system.cpu1.dcache.ReadReq_miss_rate::.cpu1.data     0.231120                       # miss rate for ReadReq accesses
system.cpu1.dcache.ReadReq_miss_rate::total     0.231120                       # miss rate for ReadReq accesses
system.cpu1.dcache.ReadReq_avg_miss_latency::.cpu1.data 10106.508554                       # average ReadReq miss latency
system.cpu1.dcache.ReadReq_avg_miss_latency::total 10106.508554                       # average ReadReq miss latency
system.cpu1.dcache.ReadReq_mshr_misses::.cpu1.data     35283450                       # number of ReadReq MSHR misses
system.cpu1.dcache.ReadReq_mshr_misses::total     35283450                       # number of ReadReq MSHR misses
system.cpu1.dcache.ReadReq_mshr_miss_latency::.cpu1.data 333093711528                       # number of ReadReq MSHR miss cycles
system.cpu1.dcache.ReadReq_mshr_miss_latency::total 333093711528                       # number of ReadReq MSHR miss cycles
system.cpu1.dcache.ReadReq_mshr_miss_rate::.cpu1.data     0.231120                       # mshr miss rate for ReadReq accesses
system.cpu1.dcache.ReadReq_mshr_miss_rate::total     0.231120                       # mshr miss rate for ReadReq accesses
system.cpu1.dcache.ReadReq_avg_mshr_miss_latency::.cpu1.data  9440.508554                       # average ReadReq mshr miss latency
system.cpu1.dcache.ReadReq_avg_mshr_miss_latency::total  9440.508554                       # average ReadReq mshr miss latency
system.cpu1.dcache.WriteReq_hits::.cpu1.data     62305889                       # number of WriteReq hits
system.cpu1.dcache.WriteReq_hits::total      62305889                       # number of WriteReq hits
system.cpu1.dcache.WriteReq_misses::.cpu1.data      3861782                       # number of WriteReq misses
system.cpu1.dcache.WriteReq_misses::total      3861782                       # number of WriteReq misses
[...]
system.mem_ctrls.wrQLenPdf::112                     0                       # What write queue length does an incoming req see
system.mem_ctrls.wrQLenPdf::113                     0                       # What write queue length does an incoming req see
system.mem_ctrls.wrQLenPdf::114                     0                       # What write queue length does an incoming req see
system.mem_ctrls.wrQLenPdf::115                     0                       # What write queue length does an incoming req see
system.mem_ctrls.wrQLenPdf::116                     0                       # What write queue length does an incoming req see
system.mem_ctrls.wrQLenPdf::117                     0                       # What write queue length does an incoming req see
system.mem_ctrls.wrQLenPdf::118                     0                       # What write queue length does an incoming req see
system.mem_ctrls.wrQLenPdf::119                     0                       # What write queue length does an incoming req see
system.mem_ctrls.wrQLenPdf::120                     0                       # What write queue length does an incoming req see
system.mem_ctrls.wrQLenPdf::121                     0                       # What write queue length does an incoming req see
system.mem_ctrls.wrQLenPdf::122                     0                       # What write queue length does an incoming req see
system.mem_ctrls.wrQLenPdf::123                     0                       # What write queue length does an incoming req see
system.mem_ctrls.wrQLenPdf::124                     0                       # What write queue length does an incoming req see
system.mem_ctrls.wrQLenPdf::125                     0                       # What write queue length does an incoming req see
system.mem_ctrls.wrQLenPdf::126                     0                       # What write queue length does an incoming req see
system.mem_ctrls.wrQLenPdf::127                     0                       # What write queue length does an incoming req see
system.mem_ctrls.bytesPerActivate::samples      1756895                       # Bytes accessed per row activation
system.mem_ctrls.bytesPerActivate::mean            64                       # Bytes accessed per row activation
system.mem_ctrls.bytesPerActivate::gmean    64.000000                       # Bytes accessed per row activation
system.mem_ctrls.bytesPerActivate::64-71      1756895    100.00%    100.00% # Bytes accessed per row activation
system.mem_ctrls.bytesPerActivate::total      1756895                       # Bytes accessed per row activation
system.mem_ctrls.rdPerTurnAround::samples        37350                       # Reads before turning the bus around for writes
system.mem_ctrls.rdPerTurnAround::mean      30.844311                       # Reads before turning the bus around for writes
system.mem_ctrls.rdPerTurnAround::gmean     26.806623                       # Reads before turning the bus around for writes
system.mem_ctrls.rdPerTurnAround::stdev    129.250621                       # Reads before turning the bus around for writes
system.mem_ctrls.rdPerTurnAround::0-511         37349    100.00%    100.00% # Reads before turning the bus around for writes
system.mem_ctrls.rdPerTurnAround::24064-24575            1      0.00%    100.00% # Reads before turning the bus around for writes
system.mem_ctrls.rdPerTurnAround::total         37350                       # Reads before turning the bus around for writes
system.mem_ctrls.wrPerTurnAround::samples        37350                       # Writes before turning the bus around for reads
system.mem_ctrls.wrPerTurnAround::mean      16.194297                       # Writes before turning the bus around for reads
system.mem_ctrls.wrPerTurnAround::gmean     16.186086                       # Writes before turning the bus around for reads
system.mem_ctrls.wrPerTurnAround::stdev      0.530244                       # Writes before turning the bus around for reads
system.mem_ctrls.wrPerTurnAround::16            32419     86.80%     86.80% # Writes before turning the bus around for reads
system.mem_ctrls.wrPerTurnAround::17             2606      6.98%     93.78% # Writes before turning the bus around for reads
system.mem_ctrls.wrPerTurnAround::18             2324      6.22%    100.00% # Writes before turning the bus around for reads
system.mem_ctrls.wrPerTurnAround::19                1      0.00%    100.00% # Writes before turning the bus around for reads
system.mem_ctrls.wrPerTurnAround::total         37350                       # Writes before turning the bus around for reads
system.mem_ctrls.bytesReadDRAM               73730432                       # Total number of bytes read from DRAM
system.mem_ctrls.bytesReadWrQ                   17152                       # Total number of bytes read from write queue
system.mem_ctrls.bytesWritten                38710848                       # Total number of bytes written to DRAM
system.mem_ctrls.bytesReadSys                73747584                       # Total read bytes from the system interface side
system.mem_ctrls.bytesWrittenSys             38713984                       # Total written bytes from the system interface side
system.mem_ctrls.avgRdBW                        50.43                       # Average DRAM read bandwidth in MiByte/s
system.mem_ctrls.avgWrBW                        26.48                       # Average achieved write bandwidth in MiByte/s
system.mem_ctrls.avgRdBWSys                     50.44                       # Average system read bandwidth in MiByte/s
system.mem_ctrls.avgWrBWSys                     26.48                       # Average system write bandwidth in MiByte/s
system.mem_ctrls.peakBW                      19207.00                       # Theoretical peak bandwidth in MiByte/s
system.mem_ctrls.busUtil                         0.40                       # Data bus utilization in percentage
system.mem_ctrls.busUtilRead                     0.26                       # Data bus utilization in percentage for reads
system.mem_ctrls.busUtilWrite                    0.14                       # Data bus utilization in percentage for writes
system.mem_ctrls.totGap                  1461995315226                       # Total gap between requests
system.mem_ctrls.avgGap                     831997.12                       # Average gap between requests
system.mem_ctrls.masterReadBytes::.cpu0.inst        28736                       # Per-master bytes read from memory
system.mem_ctrls.masterReadBytes::.cpu0.data     22237440                       # Per-master bytes read from memory
system.mem_ctrls.masterReadBytes::.cpu1.inst        60736                       # Per-master bytes read from memory
system.mem_ctrls.masterReadBytes::.cpu1.data     51403520                       # Per-master bytes read from memory
system.mem_ctrls.masterWriteBytes::.writebacks     38710848                       # Per-master bytes write to memory
system.mem_ctrls.masterReadRate::.cpu0.inst 19655.293253846561                       # Per-master bytes read from memory rate (Bytes/sec)
system.mem_ctrls.masterReadRate::.cpu0.data 15210307.781696049497                       # Per-master bytes read from memory rate (Bytes/sec)
system.mem_ctrls.masterReadRate::.cpu1.inst 41543.147656793735                       # Per-master bytes read from memory rate (Bytes/sec)
system.mem_ctrls.masterReadRate::.cpu1.data 35159773.798718221486                       # Per-master bytes read from memory rate (Bytes/sec)
system.mem_ctrls.masterWriteRate::.writebacks 26478043.901206836104                       # Per-master bytes write to memory rate (Bytes/sec)
system.mem_ctrls.masterReadAccesses::.cpu0.inst          449                       # Per-master read serviced memory accesses
system.mem_ctrls.masterReadAccesses::.cpu0.data       347460                       # Per-master read serviced memory accesses
system.mem_ctrls.masterReadAccesses::.cpu1.inst          949                       # Per-master read serviced memory accesses
system.mem_ctrls.masterReadAccesses::.cpu1.data       803448                       # Per-master read serviced memory accesses
system.mem_ctrls.masterWriteAccesses::.writebacks       604906                       # Per-master write serviced memory accesses
system.mem_ctrls.masterReadTotalLat::.cpu0.inst     16339705                       # Per-master read total memory access latency
system.mem_ctrls.masterReadTotalLat::.cpu0.data  25697345687                       # Per-master read total memory access latency
system.mem_ctrls.masterReadTotalLat::.cpu1.inst     36225901                       # Per-master read total memory access latency
system.mem_ctrls.masterReadTotalLat::.cpu1.data  45027917621                       # Per-master read total memory access latency
system.mem_ctrls.masterWriteTotalLat::.writebacks 81316013186963                       # Per-master write total memory access latency
system.mem_ctrls.masterReadAvgLat::.cpu0.inst     36391.33                       # Per-master read average memory access latency
system.mem_ctrls.masterReadAvgLat::.cpu0.data     73957.71                       # Per-master read average memory access latency
system.mem_ctrls.masterReadAvgLat::.cpu1.inst     38172.71                       # Per-master read average memory access latency
system.mem_ctrls.masterReadAvgLat::.cpu1.data     56043.35                       # Per-master read average memory access latency
system.mem_ctrls.masterWriteAvgLat::.writebacks 134427519.63                       # Per-master write average memory access latency
system.mem_ctrls.pageHitRate                     0.00                       # Row buffer hit rate, read and write combined
system.mem_ctrls.rank1.actEnergy         1370003819.180206                       # Energy for activate commands per rank (pJ)
system.mem_ctrls.rank1.preEnergy         2418583665.403277                       # Energy for precharge commands per rank (pJ)
system.mem_ctrls.rank1.readEnergy        1580081842.349911                       # Energy for read commands per rank (pJ)
system.mem_ctrls.rank1.writeEnergy       713607362.831845                       # Energy for write commands per rank (pJ)
system.mem_ctrls.rank1.refreshEnergy     126909451682.140045                       # Energy for refresh commands per rank (pJ)
system.mem_ctrls.rank1.actBackEnergy     43922848704.020493                       # Energy for active background per rank (pJ)
system.mem_ctrls.rank1.preBackEnergy     446873784045.386902                       # Energy for precharge background per rank (pJ)
system.mem_ctrls.rank1.actPowerDownEnergy            0                       # Energy for active power-down per rank (pJ)
system.mem_ctrls.rank1.prePowerDownEnergy            0                       # Energy for precharge power-down per rank (pJ)
system.mem_ctrls.rank1.selfRefreshEnergy            0                       # Energy for self refresh per rank (pJ)
system.mem_ctrls.rank1.totalEnergy       623788361122.407715                       # Total energy per rank (pJ)
system.mem_ctrls.rank1.averagePower        426.668401                       # Core power per rank (mW)
system.mem_ctrls.rank1.totalIdleTime                0                       # Total Idle time Per DRAM Rank
system.mem_ctrls.rank1.memoryStateTime::IDLE 1355750961847                       # Time in different power states
system.mem_ctrls.rank1.memoryStateTime::REF  65721600000                       # Time in different power states
system.mem_ctrls.rank1.memoryStateTime::SREF            0                       # Time in different power states
system.mem_ctrls.rank1.memoryStateTime::PRE_PDN            0                       # Time in different power states
system.mem_ctrls.rank1.memoryStateTime::ACT  40525467329                       # Time in different power states
system.mem_ctrls.rank1.memoryStateTime::ACT_PDN            0                       # Time in different power states
system.mem_ctrls.rank0.actEnergy         1369656078.332207                       # Energy for activate commands per rank (pJ)
system.mem_ctrls.rank0.preEnergy         2417969769.060078                       # Energy for precharge commands per rank (pJ)
system.mem_ctrls.rank0.readEnergy        1579845952.743514                       # Energy for read commands per rank (pJ)
system.mem_ctrls.rank0.writeEnergy       713284172.159840                       # Energy for write commands per rank (pJ)
system.mem_ctrls.rank0.refreshEnergy     126909451682.140045                       # Energy for refresh commands per rank (pJ)
system.mem_ctrls.rank0.actBackEnergy     43890357099.863243                       # Energy for active background per rank (pJ)
system.mem_ctrls.rank0.preBackEnergy     446896214797.502197                       # Energy for precharge background per rank (pJ)
system.mem_ctrls.rank0.actPowerDownEnergy            0                       # Energy for active power-down per rank (pJ)
system.mem_ctrls.rank0.prePowerDownEnergy            0                       # Energy for precharge power-down per rank (pJ)
system.mem_ctrls.rank0.selfRefreshEnergy            0                       # Energy for self refresh per rank (pJ)
system.mem_ctrls.rank0.totalEnergy       623776779552.891357                       # Total energy per rank (pJ)
system.mem_ctrls.rank0.averagePower        426.660479                       # Core power per rank (mW)
system.mem_ctrls.rank0.totalIdleTime                0                       # Total Idle time Per DRAM Rank
system.mem_ctrls.rank0.memoryStateTime::IDLE 1355778178252                       # Time in different power states
system.mem_ctrls.rank0.memoryStateTime::REF  65721600000                       # Time in different power states
system.mem_ctrls.rank0.memoryStateTime::SREF            0                       # Time in different power states
system.mem_ctrls.rank0.memoryStateTime::PRE_PDN            0                       # Time in different power states
system.mem_ctrls.rank0.memoryStateTime::ACT  40498250924                       # Time in different power states
system.mem_ctrls.rank0.memoryStateTime::ACT_PDN            0                       # Time in different power states
system.cpu_clk_domain.clock                       333                       # Clock period in ticks
system.tol2bus.pwrStateResidencyTicks::UNDEFINED 1461998029176                       # Cumulative time (in ticks) in various power states
system.tol2bus.trans_dist::ReadResp          35632515                       # Transaction distribution
system.tol2bus.trans_dist::WritebackDirty     28817922                       # Transaction distribution
system.tol2bus.trans_dist::WritebackClean          462                       # Transaction distribution
system.tol2bus.trans_dist::CleanEvict        11565431                       # Transaction distribution
system.tol2bus.trans_dist::ReadExReq          3862038                       # Transaction distribution
system.tol2bus.trans_dist::ReadExResp         3862038                       # Transaction distribution
system.tol2bus.trans_dist::ReadCleanReq          1405                       # Transaction distribution
system.tol2bus.trans_dist::ReadSharedReq     35631110                       # Transaction distribution
system.tol2bus.pkt_count_system.cpu0.icache.mem_side::system.l2.cpu_side          916                       # Packet count per connected master and slave (bytes)
system.tol2bus.pkt_count_system.cpu0.dcache.mem_side::system.l2.cpu_side      1043740                       # Packet count per connected master and slave (bytes)
system.tol2bus.pkt_count_system.cpu1.icache.mem_side::system.l2.cpu_side         2356                       # Packet count per connected master and slave (bytes)
system.tol2bus.pkt_count_system.cpu1.dcache.mem_side::system.l2.cpu_side    117435688                       # Packet count per connected master and slave (bytes)
system.tol2bus.pkt_count::total             118482700                       # Packet count per connected master and slave (bytes)
system.tol2bus.pkt_size_system.cpu0.icache.mem_side::system.l2.cpu_side        29888                       # Cumulative packet size per connected master and slave (bytes)
system.tol2bus.pkt_size_system.cpu0.dcache.mem_side::system.l2.cpu_side     22300608                       # Cumulative packet size per connected master and slave (bytes)
system.tol2bus.pkt_size_system.cpu1.icache.mem_side::system.l2.cpu_side        89600                       # Cumulative packet size per connected master and slave (bytes)
system.tol2bus.pkt_size_system.cpu1.dcache.mem_side::system.l2.cpu_side   4310893888                       # Cumulative packet size per connected master and slave (bytes)
system.tol2bus.pkt_size::total             4333313984                       # Cumulative packet size per connected master and slave (bytes)
system.tol2bus.snoops                          890221                       # Total snoops (count)
system.tol2bus.snoopTraffic                  38713984                       # Total snoop traffic (bytes)
system.tol2bus.snoop_fanout::samples         40384774                       # Request fanout histogram
system.tol2bus.snoop_fanout::mean            0.000020                       # Request fanout histogram
system.tol2bus.snoop_fanout::stdev           0.004467                       # Request fanout histogram
system.tol2bus.snoop_fanout::underflows             0      0.00%      0.00% # Request fanout histogram
system.tol2bus.snoop_fanout::0               40383968    100.00%    100.00% # Request fanout histogram
system.tol2bus.snoop_fanout::1                    806      0.00%    100.00% # Request fanout histogram
system.tol2bus.snoop_fanout::2                      0      0.00%    100.00% # Request fanout histogram
system.tol2bus.snoop_fanout::3                      0      0.00%    100.00% # Request fanout histogram
system.tol2bus.snoop_fanout::4                      0      0.00%    100.00% # Request fanout histogram
system.tol2bus.snoop_fanout::5                      0      0.00%    100.00% # Request fanout histogram
system.tol2bus.snoop_fanout::6                      0      0.00%    100.00% # Request fanout histogram
system.tol2bus.snoop_fanout::7                      0      0.00%    100.00% # Request fanout histogram
system.tol2bus.snoop_fanout::8                      0      0.00%    100.00% # Request fanout histogram
system.tol2bus.snoop_fanout::overflows              0      0.00%    100.00% # Request fanout histogram
system.tol2bus.snoop_fanout::min_value              0                       # Request fanout histogram
system.tol2bus.snoop_fanout::max_value              1                       # Request fanout histogram
system.tol2bus.snoop_fanout::total           40384774                       # Request fanout histogram
system.tol2bus.reqLayer0.occupancy        45093229299                       # Layer occupancy (ticks)
system.tol2bus.reqLayer0.utilization              3.1                       # Layer utilization (%)
system.tol2bus.respLayer5.occupancy       39106086768                       # Layer occupancy (ticks)
system.tol2bus.respLayer5.utilization             2.7                       # Layer utilization (%)
system.tol2bus.respLayer4.occupancy            955044                       # Layer occupancy (ticks)
system.tol2bus.respLayer4.utilization             0.0                       # Layer utilization (%)
system.tol2bus.respLayer1.occupancy         347883484                       # Layer occupancy (ticks)
system.tol2bus.respLayer1.utilization             0.0                       # Layer utilization (%)
system.tol2bus.respLayer0.occupancy            448551                       # Layer occupancy (ticks)
system.tol2bus.respLayer0.utilization             0.0                       # Layer utilization (%)

---------- End Simulation Statistics   ----------
