gem5 Simulator System.  http://gem5.org
gem5 is copyrighted software; use the --copyright option for details.

gem5 compiled Dec 20 2024 16:10:06
gem5 started Dec 30 2024 18:34:29
gem5 executing on computenode3, pid 3989867
command line: /home/nimish/mirage/perf_analysis/gem5/build/X86/gem5.opt --outdir ./stats/stat_3534 /home/nimish/mirage/perf_analysis/gem5/configs/example/spec06_config_multiprogram.py --benchmark=specrand_i --num-cpus=1 --mem-size=8GB --mem-type=DDR4_2400_8x8 --cpu-type TimingSimpleCPU --caches --l2cache --l1d_size=512B --l1i_size=32kB --l2_size=16MB --l1d_assoc=8 --l1i_assoc=8 --l2_assoc=16 --mirage_mode=skew-vway-rand --l2_numSkews=2 --l2_TDR=1.75 --l2_EncrLat=3 --prog-interval=300Hz

Workload-0: 
['/home/nimish/mirage/AES_TBOX/C/build/AES-TBOX']
Global frequency set at 1000000000000 ticks per second
CWD: /home/nimish/mirage
      0: system.l2.replacement_policy: For Random Skew-Fair replacement policy: numSkews:2, assoc:28. 
      0: system.l2.tags.indexing_policy: Size of Tag-Store for Skewed-Assoc-Randomized - Sets:16384, with Assoc:28 
      0: system.l2.tags: Size of Tag-Store for Vway-Tags is 458752 lines, with assoc:28 and size 29360128 Bytes
      0: system.l2.tags: Actual Size of Cache seen from Vway-Tags is 262144 lines, with assoc:16 and size 16777216 Bytes
      0: system.l2.tags: Data Repl Policy: 0 (0-Random,1-Reuse).
**** REAL SIMULATION ****
3333333333: Event_86: system.cpu progress event, total committed:3146162, progress insts committed: 3146162, IPC: 0.314302
6666666666: Event_86: system.cpu progress event, total committed:5858828, progress insts committed: 2712666, IPC: 0.270995
9999999999: Event_86: system.cpu progress event, total committed:8571453, progress insts committed: 2712625, IPC: 0.270991
13333333332: Event_86: system.cpu progress event, total committed:11284076, progress insts committed: 2712623, IPC: 0.270991
16666666665: Event_86: system.cpu progress event, total committed:13996738, progress insts committed: 2712662, IPC: 0.270995
19999999998: Event_86: system.cpu progress event, total committed:16709426, progress insts committed: 2712688, IPC: 0.270998
23333333331: Event_86: system.cpu progress event, total committed:19422060, progress insts committed: 2712634, IPC: 0.270992
26666666664: Event_86: system.cpu progress event, total committed:22134626, progress insts committed: 2712566, IPC: 0.270985
29999999997: Event_86: system.cpu progress event, total committed:24847119, progress insts committed: 2712493, IPC: 0.270978
33333333330: Event_86: system.cpu progress event, total committed:27559742, progress insts committed: 2712623, IPC: 0.270991
36666666663: Event_86: system.cpu progress event, total committed:30272368, progress insts committed: 2712626, IPC: 0.270991
39999999996: Event_86: system.cpu progress event, total committed:32985026, progress insts committed: 2712658, IPC: 0.270995
43333333329: Event_86: system.cpu progress event, total committed:35697714, progress insts committed: 2712688, IPC: 0.270998
46666666662: Event_86: system.cpu progress event, total committed:38410354, progress insts committed: 2712640, IPC: 0.270993
49999999995: Event_86: system.cpu progress event, total committed:41122978, progress insts committed: 2712624, IPC: 0.270991
53333333328: Event_86: system.cpu progress event, total committed:43835426, progress insts committed: 2712448, IPC: 0.270974
56666666661: Event_86: system.cpu progress event, total committed:46548037, progress insts committed: 2712611, IPC: 00.27099
59999999994: Event_86: system.cpu progress event, total committed:49260662, progress insts committed: 2712625, IPC: 0.270991
63333333327: Event_86: system.cpu progress event, total committed:51973314, progress insts committed: 2712652, IPC: 0.270994
66666666660: Event_86: system.cpu progress event, total committed:54686002, progress insts committed: 2712688, IPC: 0.270998
69999999993: Event_86: system.cpu progress event, total committed:57398646, progress insts committed: 2712644, IPC: 0.270993
73333333326: Event_86: system.cpu progress event, total committed:60111268, progress insts committed: 2712622, IPC: 0.270991
76666666659: Event_86: system.cpu progress event, total committed:62823893, progress insts committed: 2712625, IPC: 0.270991
79999999992: Event_86: system.cpu progress event, total committed:65536331, progress insts committed: 2712438, IPC: 0.270973
83333333325: Event_86: system.cpu progress event, total committed:68248955, progress insts committed: 2712624, IPC: 0.270991
86666666658: Event_86: system.cpu progress event, total committed:70961602, progress insts committed: 2712647, IPC: 0.270993
89999999991: Event_86: system.cpu progress event, total committed:73674290, progress insts committed: 2712688, IPC: 0.270998
93333333324: Event_86: system.cpu progress event, total committed:76386937, progress insts committed: 2712647, IPC: 0.270993
96666666657: Event_86: system.cpu progress event, total committed:79099560, progress insts committed: 2712623, IPC: 0.270991
99999999990: Event_86: system.cpu progress event, total committed:81812183, progress insts committed: 2712623, IPC: 0.270991
103333333323: Event_86: system.cpu progress event, total committed:84524866, progress insts committed: 2712683, IPC: 0.270997
106666666656: Event_86: system.cpu progress event, total committed:87237244, progress insts committed: 2712378, IPC: 0.270967
109999999989: Event_86: system.cpu progress event, total committed:89949890, progress insts committed: 2712646, IPC: 0.270993
113333333322: Event_86: system.cpu progress event, total committed:92662578, progress insts committed: 2712688, IPC: 0.270998
116666666655: Event_86: system.cpu progress event, total committed:95375226, progress insts committed: 2712648, IPC: 0.270994
119999999988: Event_86: system.cpu progress event, total committed:98087851, progress insts committed: 2712625, IPC: 0.270991
123333333321: Event_86: system.cpu progress event, total committed:100800478, progress insts committed: 2712627, IPC: 0.270991
126666666654: Event_86: system.cpu progress event, total committed:103513154, progress insts committed: 2712676, IPC: 0.270996
129999999987: Event_86: system.cpu progress event, total committed:106225839, progress insts committed: 2712685, IPC: 0.270997
133333333320: Event_86: system.cpu progress event, total committed:108938178, progress insts committed: 2712339, IPC: 0.270963
136666666653: Event_86: system.cpu progress event, total committed:111650866, progress insts committed: 2712688, IPC: 0.270998
139999999986: Event_86: system.cpu progress event, total committed:114363521, progress insts committed: 2712655, IPC: 0.270994
143333333319: Event_86: system.cpu progress event, total committed:117076146, progress insts committed: 2712625, IPC: 0.270991
146666666652: Event_86: system.cpu progress event, total committed:119788771, progress insts committed: 2712625, IPC: 0.270991
149999999985: Event_86: system.cpu progress event, total committed:122501442, progress insts committed: 2712671, IPC: 0.270996
153333333318: Event_86: system.cpu progress event, total committed:125214128, progress insts committed: 2712686, IPC: 0.270997
156666666651: Event_86: system.cpu progress event, total committed:127926752, progress insts committed: 2712624, IPC: 0.270991
159999999984: Event_86: system.cpu progress event, total committed:130639154, progress insts committed: 2712402, IPC: 0.270969
163333333317: Event_86: system.cpu progress event, total committed:133351815, progress insts committed: 2712661, IPC: 0.270995
166666666650: Event_86: system.cpu progress event, total committed:136064438, progress insts committed: 2712623, IPC: 0.270991
169999999983: Event_86: system.cpu progress event, total committed:138777062, progress insts committed: 2712624, IPC: 0.270991
173333333316: Event_86: system.cpu progress event, total committed:141489730, progress insts committed: 2712668, IPC: 0.270996
176666666649: Event_86: system.cpu progress event, total committed:144202418, progress insts committed: 2712688, IPC: 0.270998
179999999982: Event_86: system.cpu progress event, total committed:146915043, progress insts committed: 2712625, IPC: 0.270991
183333333315: Event_86: system.cpu progress event, total committed:149627618, progress insts committed: 2712575, IPC: 0.270986
186666666648: Event_86: system.cpu progress event, total committed:152340105, progress insts committed: 2712487, IPC: 0.270977
189999999981: Event_86: system.cpu progress event, total committed:155052730, progress insts committed: 2712625, IPC: 0.270991
193333333314: Event_86: system.cpu progress event, total committed:157765352, progress insts committed: 2712622, IPC: 0.270991
196666666647: Event_86: system.cpu progress event, total committed:160478018, progress insts committed: 2712666, IPC: 0.270995
199999999980: Event_86: system.cpu progress event, total committed:163190706, progress insts committed: 2712688, IPC: 0.270998
203333333313: Event_86: system.cpu progress event, total committed:165903333, progress insts committed: 2712627, IPC: 0.270991
206666666646: Event_86: system.cpu progress event, total committed:168615961, progress insts committed: 2712628, IPC: 0.270992
209999999979: Event_86: system.cpu progress event, total committed:171328418, progress insts committed: 2712457, IPC: 0.270974
213333333312: Event_86: system.cpu progress event, total committed:174041019, progress insts committed: 2712601, IPC: 0.270989
216666666645: Event_86: system.cpu progress event, total committed:176753644, progress insts committed: 2712625, IPC: 0.270991
219999999978: Event_86: system.cpu progress event, total committed:179466306, progress insts committed: 2712662, IPC: 0.270995
223333333311: Event_86: system.cpu progress event, total committed:182178994, progress insts committed: 2712688, IPC: 0.270998
226666666644: Event_86: system.cpu progress event, total committed:184891628, progress insts committed: 2712634, IPC: 0.270992
229999999977: Event_86: system.cpu progress event, total committed:187604255, progress insts committed: 2712627, IPC: 0.270991
233333333310: Event_86: system.cpu progress event, total committed:190316882, progress insts committed: 2712627, IPC: 0.270991
236666666643: Event_86: system.cpu progress event, total committed:193029310, progress insts committed: 2712428, IPC: 0.270972
239999999976: Event_86: system.cpu progress event, total committed:195741935, progress insts committed: 2712625, IPC: 0.270991
243333333309: Event_86: system.cpu progress event, total committed:198454594, progress insts committed: 2712659, IPC: 0.270995
246666666642: Event_86: system.cpu progress event, total committed:201167282, progress insts committed: 2712688, IPC: 0.270998
249999999975: Event_86: system.cpu progress event, total committed:203879922, progress insts committed: 2712640, IPC: 0.270993
253333333308: Event_86: system.cpu progress event, total committed:206592545, progress insts committed: 2712623, IPC: 0.270991
256666666641: Event_86: system.cpu progress event, total committed:209305170, progress insts committed: 2712625, IPC: 0.270991
259999999974: Event_86: system.cpu progress event, total committed:212017858, progress insts committed: 2712688, IPC: 0.270998
263333333307: Event_86: system.cpu progress event, total committed:214730230, progress insts committed: 2712372, IPC: 0.270966
266666666640: Event_86: system.cpu progress event, total committed:217442882, progress insts committed: 2712652, IPC: 0.270994
269999999973: Event_86: system.cpu progress event, total committed:220155570, progress insts committed: 2712688, IPC: 0.270998
273333333306: Event_86: system.cpu progress event, total committed:222868212, progress insts committed: 2712642, IPC: 0.270993
276666666639: Event_86: system.cpu progress event, total committed:225580836, progress insts committed: 2712624, IPC: 0.270991
279999999972: Event_86: system.cpu progress event, total committed:228293461, progress insts committed: 2712625, IPC: 0.270991
283333333305: Event_86: system.cpu progress event, total committed:231006146, progress insts committed: 2712685, IPC: 0.270997
286666666638: Event_86: system.cpu progress event, total committed:233718819, progress insts committed: 2712673, IPC: 0.270996
289999999971: Event_86: system.cpu progress event, total committed:236431170, progress insts committed: 2712351, IPC: 0.270964
293333333304: Event_86: system.cpu progress event, total committed:239143858, progress insts committed: 2712688, IPC: 0.270998
296666666637: Event_86: system.cpu progress event, total committed:241856505, progress insts committed: 2712647, IPC: 0.270993
299999999970: Event_86: system.cpu progress event, total committed:244569127, progress insts committed: 2712622, IPC: 0.270991
303333333303: Event_86: system.cpu progress event, total committed:247281751, progress insts committed: 2712624, IPC: 0.270991
306666666636: Event_86: system.cpu progress event, total committed:249994434, progress insts committed: 2712683, IPC: 0.270997
309999999969: Event_86: system.cpu progress event, total committed:252707114, progress insts committed: 2712680, IPC: 0.270997
313333333302: Event_86: system.cpu progress event, total committed:255419739, progress insts committed: 2712625, IPC: 0.270991
316666666635: Event_86: system.cpu progress event, total committed:258132146, progress insts committed: 2712407, IPC: 0.270969
319999999968: Event_86: system.cpu progress event, total committed:260844794, progress insts committed: 2712648, IPC: 0.270994
323333333301: Event_86: system.cpu progress event, total committed:263557420, progress insts committed: 2712626, IPC: 0.270991
326666666634: Event_86: system.cpu progress event, total committed:266270045, progress insts committed: 2712625, IPC: 0.270991
329999999967: Event_86: system.cpu progress event, total committed:268982722, progress insts committed: 2712677, IPC: 0.270996
333333333300: Event_86: system.cpu progress event, total committed:271695405, progress insts committed: 2712683, IPC: 0.270997
336666666633: Event_86: system.cpu progress event, total committed:274408029, progress insts committed: 2712624, IPC: 0.270991
339999999966: Event_86: system.cpu progress event, total committed:277120610, progress insts committed: 2712581, IPC: 0.270987
343333333299: Event_86: system.cpu progress event, total committed:279833089, progress insts committed: 2712479, IPC: 0.270977
346666666632: Event_86: system.cpu progress event, total committed:282545712, progress insts committed: 2712623, IPC: 0.270991
349999999965: Event_86: system.cpu progress event, total committed:285258339, progress insts committed: 2712627, IPC: 0.270991
353333333298: Event_86: system.cpu progress event, total committed:287971010, progress insts committed: 2712671, IPC: 0.270996
356666666631: Event_86: system.cpu progress event, total committed:290683696, progress insts committed: 2712686, IPC: 0.270997
359999999964: Event_86: system.cpu progress event, total committed:293396320, progress insts committed: 2712624, IPC: 0.270991
363333333297: Event_86: system.cpu progress event, total committed:296108945, progress insts committed: 2712625, IPC: 0.270991
366666666630: Event_86: system.cpu progress event, total committed:298821410, progress insts committed: 2712465, IPC: 0.270975
369999999963: Event_86: system.cpu progress event, total committed:301534007, progress insts committed: 2712597, IPC: 0.270988
373333333296: Event_86: system.cpu progress event, total committed:304246629, progress insts committed: 2712622, IPC: 0.270991
376666666629: Event_86: system.cpu progress event, total committed:306959298, progress insts committed: 2712669, IPC: 0.270996
379999999962: Event_86: system.cpu progress event, total committed:309671986, progress insts committed: 2712688, IPC: 0.270998
383333333295: Event_86: system.cpu progress event, total committed:312384611, progress insts committed: 2712625, IPC: 0.270991
386666666628: Event_86: system.cpu progress event, total committed:315097234, progress insts committed: 2712623, IPC: 0.270991
389999999961: Event_86: system.cpu progress event, total committed:317809874, progress insts committed: 2712640, IPC: 0.270993
393333333294: Event_86: system.cpu progress event, total committed:320522296, progress insts committed: 2712422, IPC: 0.270971
396666666627: Event_86: system.cpu progress event, total committed:323234920, progress insts committed: 2712624, IPC: 0.270991
399999999960: Event_86: system.cpu progress event, total committed:325947586, progress insts committed: 2712666, IPC: 0.270995
403333333293: Event_86: system.cpu progress event, total committed:328660274, progress insts committed: 2712688, IPC: 0.270998
406666666626: Event_86: system.cpu progress event, total committed:331372903, progress insts committed: 2712629, IPC: 0.270992
409999999959: Event_86: system.cpu progress event, total committed:334085529, progress insts committed: 2712626, IPC: 0.270991
413333333292: Event_86: system.cpu progress event, total committed:336798162, progress insts committed: 2712633, IPC: 0.270992
416666666625: Event_86: system.cpu progress event, total committed:339510850, progress insts committed: 2712688, IPC: 0.270998
419999999958: Event_86: system.cpu progress event, total committed:342223211, progress insts committed: 2712361, IPC: 0.270965
423333333291: Event_86: system.cpu progress event, total committed:344935874, progress insts committed: 2712663, IPC: 0.270995
426666666624: Event_86: system.cpu progress event, total committed:347648562, progress insts committed: 2712688, IPC: 0.270998
429999999957: Event_86: system.cpu progress event, total committed:350361198, progress insts committed: 2712636, IPC: 0.270992
433333333290: Event_86: system.cpu progress event, total committed:353073823, progress insts committed: 2712625, IPC: 0.270991
436666666623: Event_86: system.cpu progress event, total committed:355786450, progress insts committed: 2712627, IPC: 0.270991
439999999956: Event_86: system.cpu progress event, total committed:358499138, progress insts committed: 2712688, IPC: 0.270998
443333333289: Event_86: system.cpu progress event, total committed:361211804, progress insts committed: 2712666, IPC: 0.270995
446666666622: Event_86: system.cpu progress event, total committed:363924162, progress insts committed: 2712358, IPC: 0.270965
449999999955: Event_86: system.cpu progress event, total committed:366636850, progress insts committed: 2712688, IPC: 0.270998
453333333288: Event_86: system.cpu progress event, total committed:369349489, progress insts committed: 2712639, IPC: 0.270993
456666666621: Event_86: system.cpu progress event, total committed:372168772, progress insts committed: 2819283, IPC: 0.281646
459999999954: Event_86: system.cpu progress event, total committed:375032125, progress insts committed: 2863353, IPC: 0.286049
463333333287: Event_86: system.cpu progress event, total committed:377895485, progress insts committed: 2863360, IPC: 00.28605
466666666620: Event_86: system.cpu progress event, total committed:380758839, progress insts committed: 2863354, IPC: 0.286049
469999999953: Event_86: system.cpu progress event, total committed:383622198, progress insts committed: 2863359, IPC: 00.28605
473333333286: Event_86: system.cpu progress event, total committed:386485277, progress insts committed: 2863079, IPC: 0.286022
476666666619: Event_86: system.cpu progress event, total committed:389348621, progress insts committed: 2863344, IPC: 0.286048
479999999952: Event_86: system.cpu progress event, total committed:392211965, progress insts committed: 2863344, IPC: 0.286048
483333333285: Event_86: system.cpu progress event, total committed:395075309, progress insts committed: 2863344, IPC: 0.286048
486666666618: Event_86: system.cpu progress event, total committed:397938654, progress insts committed: 2863345, IPC: 0.286048
489999999951: Event_86: system.cpu progress event, total committed:400802014, progress insts committed: 2863360, IPC: 00.28605
493333333284: Event_86: system.cpu progress event, total committed:403665367, progress insts committed: 2863353, IPC: 0.286049
496666666617: Event_86: system.cpu progress event, total committed:406528685, progress insts committed: 2863318, IPC: 0.286045
499999999950: Event_86: system.cpu progress event, total committed:409391853, progress insts committed: 2863168, IPC: 00.28603
503333333283: Event_86: system.cpu progress event, total committed:412255197, progress insts committed: 2863344, IPC: 0.286048
506666666616: Event_86: system.cpu progress event, total committed:415118541, progress insts committed: 2863344, IPC: 0.286048
509999999949: Event_86: system.cpu progress event, total committed:417981885, progress insts committed: 2863344, IPC: 0.286048
513333333282: Event_86: system.cpu progress event, total committed:420845229, progress insts committed: 2863344, IPC: 0.286048
516666666615: Event_86: system.cpu progress event, total committed:423708573, progress insts committed: 2863344, IPC: 0.286048
519999999948: Event_86: system.cpu progress event, total committed:426571917, progress insts committed: 2863344, IPC: 0.286048
523333333281: Event_86: system.cpu progress event, total committed:429435085, progress insts committed: 2863168, IPC: 00.28603
526666666614: Event_86: system.cpu progress event, total committed:432298402, progress insts committed: 2863317, IPC: 0.286045
529999999947: Event_86: system.cpu progress event, total committed:435161755, progress insts committed: 2863353, IPC: 0.286049
533333333280: Event_86: system.cpu progress event, total committed:438025115, progress insts committed: 2863360, IPC: 00.28605
536666666613: Event_86: system.cpu progress event, total committed:440888461, progress insts committed: 2863346, IPC: 0.286048
539999999946: Event_86: system.cpu progress event, total committed:443751805, progress insts committed: 2863344, IPC: 0.286048
543333333279: Event_86: system.cpu progress event, total committed:446615149, progress insts committed: 2863344, IPC: 0.286048
546666666612: Event_86: system.cpu progress event, total committed:449478493, progress insts committed: 2863344, IPC: 0.286048
549999999945: Event_86: system.cpu progress event, total committed:452341571, progress insts committed: 2863078, IPC: 0.286021
553333333278: Event_86: system.cpu progress event, total committed:455204925, progress insts committed: 2863354, IPC: 0.286049
556666666611: Event_86: system.cpu progress event, total committed:458068284, progress insts committed: 2863359, IPC: 00.28605
559999999944: Event_86: system.cpu progress event, total committed:460931644, progress insts committed: 2863360, IPC: 00.28605
563333333277: Event_86: system.cpu progress event, total committed:463794997, progress insts committed: 2863353, IPC: 0.286049
566666666610: Event_86: system.cpu progress event, total committed:466658357, progress insts committed: 2863360, IPC: 00.28605
569999999943: Event_86: system.cpu progress event, total committed:469521714, progress insts committed: 2863357, IPC: 0.286049
573333333276: Event_86: system.cpu progress event, total committed:472385069, progress insts committed: 2863355, IPC: 0.286049
576666666609: Event_86: system.cpu progress event, total committed:475248100, progress insts committed: 2863031, IPC: 0.286017
579999999942: Event_86: system.cpu progress event, total committed:478111453, progress insts committed: 2863353, IPC: 0.286049
583333333275: Event_86: system.cpu progress event, total committed:480974813, progress insts committed: 2863360, IPC: 00.28605
586666666608: Event_86: system.cpu progress event, total committed:483838170, progress insts committed: 2863357, IPC: 0.286049
589999999941: Event_86: system.cpu progress event, total committed:486701526, progress insts committed: 2863356, IPC: 0.286049
593333333274: Event_86: system.cpu progress event, total committed:489564886, progress insts committed: 2863360, IPC: 00.28605
596666666607: Event_86: system.cpu progress event, total committed:492428239, progress insts committed: 2863353, IPC: 0.286049
599999999940: Event_86: system.cpu progress event, total committed:495291598, progress insts committed: 2863359, IPC: 00.28605
603333333273: Event_86: system.cpu progress event, total committed:498154637, progress insts committed: 2863039, IPC: 0.286018
606666666606: Event_86: system.cpu progress event, total committed:501017982, progress insts committed: 2863345, IPC: 0.286048
609999999939: Event_86: system.cpu progress event, total committed:503881342, progress insts committed: 2863360, IPC: 00.28605
613333333272: Event_86: system.cpu progress event, total committed:506744695, progress insts committed: 2863353, IPC: 0.286049
616666666605: Event_86: system.cpu progress event, total committed:509608055, progress insts committed: 2863360, IPC: 00.28605
619999999938: Event_86: system.cpu progress event, total committed:512471412, progress insts committed: 2863357, IPC: 0.286049
623333333271: Event_86: system.cpu progress event, total committed:515334768, progress insts committed: 2863356, IPC: 0.286049
626666666604: Event_86: system.cpu progress event, total committed:518198128, progress insts committed: 2863360, IPC: 00.28605
629999999937: Event_86: system.cpu progress event, total committed:521061213, progress insts committed: 2863085, IPC: 0.286022
633333333270: Event_86: system.cpu progress event, total committed:523924557, progress insts committed: 2863344, IPC: 0.286048
636666666603: Event_86: system.cpu progress event, total committed:526787901, progress insts committed: 2863344, IPC: 0.286048
639999999936: Event_86: system.cpu progress event, total committed:529651245, progress insts committed: 2863344, IPC: 0.286048
643333333269: Event_86: system.cpu progress event, total committed:532514589, progress insts committed: 2863344, IPC: 0.286048
646666666602: Event_86: system.cpu progress event, total committed:535377937, progress insts committed: 2863348, IPC: 0.286048
649999999935: Event_86: system.cpu progress event, total committed:538241297, progress insts committed: 2863360, IPC: 00.28605
653333333268: Event_86: system.cpu progress event, total committed:541104621, progress insts committed: 2863324, IPC: 0.286046
656666666601: Event_86: system.cpu progress event, total committed:543967789, progress insts committed: 2863168, IPC: 00.28603
659999999934: Event_86: system.cpu progress event, total committed:546831133, progress insts committed: 2863344, IPC: 0.286048
663333333267: Event_86: system.cpu progress event, total committed:549694477, progress insts committed: 2863344, IPC: 0.286048
666666666600: Event_86: system.cpu progress event, total committed:552557821, progress insts committed: 2863344, IPC: 0.286048
Round 10 sbox outputs: 5c 80 60 9e 0e 52 f8 ea 7d ee 24 25 0b f3 44 3a 
669999999933: Event_86: system.cpu progress event, total committed:555416232, progress insts committed: 2858411, IPC: 0.285555
673333333266: Event_86: system.cpu progress event, total committed:558312504, progress insts committed: 2896272, IPC: 0.289338
676666666599: Event_86: system.cpu progress event, total committed:561210281, progress insts committed: 2897777, IPC: 0.289488
679999999932: Event_86: system.cpu progress event, total committed:564103721, progress insts committed: 2893440, IPC: 0.289055
683333333265: Event_86: system.cpu progress event, total committed:567001169, progress insts committed: 2897448, IPC: 0.289455
686666666598: Event_86: system.cpu progress event, total committed:569896409, progress insts committed: 2895240, IPC: 0.289234
689999999931: Event_86: system.cpu progress event, total committed:572792302, progress insts committed: 2895893, IPC: 000.2893
693333333264: Event_86: system.cpu progress event, total committed:575688041, progress insts committed: 2895739, IPC: 0.289284
696666666597: Event_86: system.cpu progress event, total committed:578585177, progress insts committed: 2897136, IPC: 0.289424
699999999930: Event_86: system.cpu progress event, total committed:581482501, progress insts committed: 2897324, IPC: 0.289443
703333333263: Event_86: system.cpu progress event, total committed:584376658, progress insts committed: 2894157, IPC: 0.289126
706666666596: Event_86: system.cpu progress event, total committed:587272747, progress insts committed: 2896089, IPC: 0.289319
709999999929: Event_86: system.cpu progress event, total committed:590168706, progress insts committed: 2895959, IPC: 0.289306
713333333262: Event_86: system.cpu progress event, total committed:593063993, progress insts committed: 2895287, IPC: 0.289239
716666666595: Event_86: system.cpu progress event, total committed:595960891, progress insts committed: 2896898, IPC: 000.2894
719999999928: Event_86: system.cpu progress event, total committed:598857867, progress insts committed: 2896976, IPC: 0.289408
723333333261: Event_86: system.cpu progress event, total committed:601755720, progress insts committed: 2897853, IPC: 0.289496
726666666594: Event_86: system.cpu progress event, total committed:604652185, progress insts committed: 2896465, IPC: 0.289357
729999999927: Event_86: system.cpu progress event, total committed:607546324, progress insts committed: 2894139, IPC: 0.289124
733333333260: Event_86: system.cpu progress event, total committed:610440147, progress insts committed: 2893823, IPC: 0.289093
736666666593: Event_86: system.cpu progress event, total committed:613337961, progress insts committed: 2897814, IPC: 0.289492
739999999926: Event_86: system.cpu progress event, total committed:616233175, progress insts committed: 2895214, IPC: 0.289232
743333333259: Event_86: system.cpu progress event, total committed:619129660, progress insts committed: 2896485, IPC: 0.289359
746666666592: Event_86: system.cpu progress event, total committed:622028313, progress insts committed: 2898653, IPC: 0.289575
749999999925: Event_86: system.cpu progress event, total committed:624927561, progress insts committed: 2899248, IPC: 0.289635
753333333258: Event_86: system.cpu progress event, total committed:627824869, progress insts committed: 2897308, IPC: 0.289441
756666666591: Event_86: system.cpu progress event, total committed:630718313, progress insts committed: 2893444, IPC: 0.289055
759999999924: Event_86: system.cpu progress event, total committed:633614569, progress insts committed: 2896256, IPC: 0.289336
763333333257: Event_86: system.cpu progress event, total committed:636513465, progress insts committed: 2898896, IPC: 000.2896
766666666590: Event_86: system.cpu progress event, total committed:639410781, progress insts committed: 2897316, IPC: 0.289442
769999999923: Event_86: system.cpu progress event, total committed:642309693, progress insts committed: 2898912, IPC: 0.289601
773333333256: Event_86: system.cpu progress event, total committed:645207337, progress insts committed: 2897644, IPC: 0.289475
776666666589: Event_86: system.cpu progress event, total committed:648103638, progress insts committed: 2896301, IPC: 00.28934
779999999922: Event_86: system.cpu progress event, total committed:651000553, progress insts committed: 2896915, IPC: 0.289402
783333333255: Event_86: system.cpu progress event, total committed:653896527, progress insts committed: 2895974, IPC: 0.289308
786666666588: Event_86: system.cpu progress event, total committed:656799929, progress insts committed: 2903402, IPC: 00.29005
789999999921: Event_86: system.cpu progress event, total committed:659697241, progress insts committed: 2897312, IPC: 0.289441
793333333254: Event_86: system.cpu progress event, total committed:662593032, progress insts committed: 2895791, IPC: 00.28929
796666666587: Event_86: system.cpu progress event, total committed:665488242, progress insts committed: 2895210, IPC: 0.289231
799999999920: Event_86: system.cpu progress event, total committed:668387417, progress insts committed: 2899175, IPC: 0.289628
803333333253: Event_86: system.cpu progress event, total committed:671286198, progress insts committed: 2898781, IPC: 0.289588
806666666586: Event_86: system.cpu progress event, total committed:674181876, progress insts committed: 2895678, IPC: 0.289278
809999999919: Event_86: system.cpu progress event, total committed:677078426, progress insts committed: 2896550, IPC: 0.289365
813333333252: Event_86: system.cpu progress event, total committed:679972441, progress insts committed: 2894015, IPC: 0.289112
816666666585: Event_86: system.cpu progress event, total committed:682867817, progress insts committed: 2895376, IPC: 0.289248
819999999918: Event_86: system.cpu progress event, total committed:685764953, progress insts committed: 2897136, IPC: 0.289424
823333333251: Event_86: system.cpu progress event, total committed:688661209, progress insts committed: 2896256, IPC: 0.289336
826666666584: Event_86: system.cpu progress event, total committed:691559265, progress insts committed: 2898056, IPC: 0.289516
829999999917: Event_86: system.cpu progress event, total committed:694457644, progress insts committed: 2898379, IPC: 0.289548
833333333250: Event_86: system.cpu progress event, total committed:697354928, progress insts committed: 2897284, IPC: 0.289439
836666666583: Event_86: system.cpu progress event, total committed:700252921, progress insts committed: 2897993, IPC: 00.28951
839999999916: Event_86: system.cpu progress event, total committed:703152081, progress insts committed: 2899160, IPC: 0.289626
843333333249: Event_86: system.cpu progress event, total committed:706049096, progress insts committed: 2897015, IPC: 0.289412
846666666582: Event_86: system.cpu progress event, total committed:708946068, progress insts committed: 2896972, IPC: 0.289408
849999999915: Event_86: system.cpu progress event, total committed:711843002, progress insts committed: 2896934, IPC: 0.289404
853333333248: Event_86: system.cpu progress event, total committed:714739833, progress insts committed: 2896831, IPC: 0.289393
856666666581: Event_86: system.cpu progress event, total committed:717638548, progress insts committed: 2898715, IPC: 0.289582
859999999914: Event_86: system.cpu progress event, total committed:720535337, progress insts committed: 2896789, IPC: 0.289389
863333333247: Event_86: system.cpu progress event, total committed:723430956, progress insts committed: 2895619, IPC: 0.289272
866666666580: Event_86: system.cpu progress event, total committed:726328460, progress insts committed: 2897504, IPC: 0.289461
869999999913: Event_86: system.cpu progress event, total committed:729227501, progress insts committed: 2899041, IPC: 0.289614
873333333246: Event_86: system.cpu progress event, total committed:732125925, progress insts committed: 2898424, IPC: 0.289553
876666666579: Event_86: system.cpu progress event, total committed:735023778, progress insts committed: 2897853, IPC: 0.289496
879999999912: Event_86: system.cpu progress event, total committed:737921849, progress insts committed: 2898071, IPC: 0.289517
Attacker access time(2f): 637727064,  for ciphertext: 82 c6 57 60 14 c0 2f 98 9a 59 8c 07 80 01 a2 c3  and round 10 key: de 94 73 5a 1a 2e 6b 06 e7 aa ec ed 8b 81 5a e6 
Exiting @ tick 881649579888 because exiting with last active thread context
