gem5 Simulator System.  http://gem5.org
gem5 is copyrighted software; use the --copyright option for details.

gem5 compiled Dec 20 2024 16:10:06
gem5 started Dec 30 2024 12:02:01
gem5 executing on computenode3, pid 3985899
command line: /home/nimish/mirage/perf_analysis/gem5/build/X86/gem5.opt --outdir ./stats/stat_1842 /home/nimish/mirage/perf_analysis/gem5/configs/example/spec06_config_multiprogram.py --benchmark=specrand_i --num-cpus=1 --mem-size=8GB --mem-type=DDR4_2400_8x8 --cpu-type TimingSimpleCPU --caches --l2cache --l1d_size=512B --l1i_size=32kB --l2_size=16MB --l1d_assoc=8 --l1i_assoc=8 --l2_assoc=16 --mirage_mode=skew-vway-rand --l2_numSkews=2 --l2_TDR=1.75 --l2_EncrLat=3 --prog-interval=300Hz

Workload-0: 
['/home/nimish/mirage/AES_TBOX/C/build/AES-TBOX']
Global frequency set at 1000000000000 ticks per second
CWD: /home/nimish/mirage
      0: system.l2.replacement_policy: For Random Skew-Fair replacement policy: numSkews:2, assoc:28. 
      0: system.l2.tags.indexing_policy: Size of Tag-Store for Skewed-Assoc-Randomized - Sets:16384, with Assoc:28 
      0: system.l2.tags: Size of Tag-Store for Vway-Tags is 458752 lines, with assoc:28 and size 29360128 Bytes
      0: system.l2.tags: Actual Size of Cache seen from Vway-Tags is 262144 lines, with assoc:16 and size 16777216 Bytes
      0: system.l2.tags: Data Repl Policy: 0 (0-Random,1-Reuse).
**** REAL SIMULATION ****
3333333333: Event_86: system.cpu progress event, total committed:3146135, progress insts committed: 3146135, IPC: 0.314299
6666666666: Event_86: system.cpu progress event, total committed:5858801, progress insts committed: 2712666, IPC: 0.270995
9999999999: Event_86: system.cpu progress event, total committed:8571426, progress insts committed: 2712625, IPC: 0.270991
13333333332: Event_86: system.cpu progress event, total committed:11284049, progress insts committed: 2712623, IPC: 0.270991
16666666665: Event_86: system.cpu progress event, total committed:13996711, progress insts committed: 2712662, IPC: 0.270995
19999999998: Event_86: system.cpu progress event, total committed:16709399, progress insts committed: 2712688, IPC: 0.270998
23333333331: Event_86: system.cpu progress event, total committed:19422033, progress insts committed: 2712634, IPC: 0.270992
26666666664: Event_86: system.cpu progress event, total committed:22134599, progress insts committed: 2712566, IPC: 0.270985
29999999997: Event_86: system.cpu progress event, total committed:24847092, progress insts committed: 2712493, IPC: 0.270978
33333333330: Event_86: system.cpu progress event, total committed:27559715, progress insts committed: 2712623, IPC: 0.270991
36666666663: Event_86: system.cpu progress event, total committed:30272341, progress insts committed: 2712626, IPC: 0.270991
39999999996: Event_86: system.cpu progress event, total committed:32984999, progress insts committed: 2712658, IPC: 0.270995
43333333329: Event_86: system.cpu progress event, total committed:35697687, progress insts committed: 2712688, IPC: 0.270998
46666666662: Event_86: system.cpu progress event, total committed:38410327, progress insts committed: 2712640, IPC: 0.270993
49999999995: Event_86: system.cpu progress event, total committed:41122951, progress insts committed: 2712624, IPC: 0.270991
53333333328: Event_86: system.cpu progress event, total committed:43835399, progress insts committed: 2712448, IPC: 0.270974
56666666661: Event_86: system.cpu progress event, total committed:46548010, progress insts committed: 2712611, IPC: 00.27099
59999999994: Event_86: system.cpu progress event, total committed:49260635, progress insts committed: 2712625, IPC: 0.270991
63333333327: Event_86: system.cpu progress event, total committed:51973287, progress insts committed: 2712652, IPC: 0.270994
66666666660: Event_86: system.cpu progress event, total committed:54685975, progress insts committed: 2712688, IPC: 0.270998
69999999993: Event_86: system.cpu progress event, total committed:57398619, progress insts committed: 2712644, IPC: 0.270993
73333333326: Event_86: system.cpu progress event, total committed:60111241, progress insts committed: 2712622, IPC: 0.270991
76666666659: Event_86: system.cpu progress event, total committed:62823866, progress insts committed: 2712625, IPC: 0.270991
79999999992: Event_86: system.cpu progress event, total committed:65536304, progress insts committed: 2712438, IPC: 0.270973
83333333325: Event_86: system.cpu progress event, total committed:68248928, progress insts committed: 2712624, IPC: 0.270991
86666666658: Event_86: system.cpu progress event, total committed:70961575, progress insts committed: 2712647, IPC: 0.270993
89999999991: Event_86: system.cpu progress event, total committed:73674263, progress insts committed: 2712688, IPC: 0.270998
93333333324: Event_86: system.cpu progress event, total committed:76386910, progress insts committed: 2712647, IPC: 0.270993
96666666657: Event_86: system.cpu progress event, total committed:79099533, progress insts committed: 2712623, IPC: 0.270991
99999999990: Event_86: system.cpu progress event, total committed:81812156, progress insts committed: 2712623, IPC: 0.270991
103333333323: Event_86: system.cpu progress event, total committed:84524839, progress insts committed: 2712683, IPC: 0.270997
106666666656: Event_86: system.cpu progress event, total committed:87237217, progress insts committed: 2712378, IPC: 0.270967
109999999989: Event_86: system.cpu progress event, total committed:89949863, progress insts committed: 2712646, IPC: 0.270993
113333333322: Event_86: system.cpu progress event, total committed:92662551, progress insts committed: 2712688, IPC: 0.270998
116666666655: Event_86: system.cpu progress event, total committed:95375199, progress insts committed: 2712648, IPC: 0.270994
119999999988: Event_86: system.cpu progress event, total committed:98087824, progress insts committed: 2712625, IPC: 0.270991
123333333321: Event_86: system.cpu progress event, total committed:100800451, progress insts committed: 2712627, IPC: 0.270991
126666666654: Event_86: system.cpu progress event, total committed:103513127, progress insts committed: 2712676, IPC: 0.270996
129999999987: Event_86: system.cpu progress event, total committed:106225812, progress insts committed: 2712685, IPC: 0.270997
133333333320: Event_86: system.cpu progress event, total committed:108938151, progress insts committed: 2712339, IPC: 0.270963
136666666653: Event_86: system.cpu progress event, total committed:111650839, progress insts committed: 2712688, IPC: 0.270998
139999999986: Event_86: system.cpu progress event, total committed:114363494, progress insts committed: 2712655, IPC: 0.270994
143333333319: Event_86: system.cpu progress event, total committed:117076119, progress insts committed: 2712625, IPC: 0.270991
146666666652: Event_86: system.cpu progress event, total committed:119788744, progress insts committed: 2712625, IPC: 0.270991
149999999985: Event_86: system.cpu progress event, total committed:122501415, progress insts committed: 2712671, IPC: 0.270996
153333333318: Event_86: system.cpu progress event, total committed:125214101, progress insts committed: 2712686, IPC: 0.270997
156666666651: Event_86: system.cpu progress event, total committed:127926725, progress insts committed: 2712624, IPC: 0.270991
159999999984: Event_86: system.cpu progress event, total committed:130639127, progress insts committed: 2712402, IPC: 0.270969
163333333317: Event_86: system.cpu progress event, total committed:133351788, progress insts committed: 2712661, IPC: 0.270995
166666666650: Event_86: system.cpu progress event, total committed:136064411, progress insts committed: 2712623, IPC: 0.270991
169999999983: Event_86: system.cpu progress event, total committed:138777035, progress insts committed: 2712624, IPC: 0.270991
173333333316: Event_86: system.cpu progress event, total committed:141489703, progress insts committed: 2712668, IPC: 0.270996
176666666649: Event_86: system.cpu progress event, total committed:144202391, progress insts committed: 2712688, IPC: 0.270998
179999999982: Event_86: system.cpu progress event, total committed:146915016, progress insts committed: 2712625, IPC: 0.270991
183333333315: Event_86: system.cpu progress event, total committed:149627591, progress insts committed: 2712575, IPC: 0.270986
186666666648: Event_86: system.cpu progress event, total committed:152340078, progress insts committed: 2712487, IPC: 0.270977
189999999981: Event_86: system.cpu progress event, total committed:155052703, progress insts committed: 2712625, IPC: 0.270991
193333333314: Event_86: system.cpu progress event, total committed:157765325, progress insts committed: 2712622, IPC: 0.270991
196666666647: Event_86: system.cpu progress event, total committed:160477991, progress insts committed: 2712666, IPC: 0.270995
199999999980: Event_86: system.cpu progress event, total committed:163190679, progress insts committed: 2712688, IPC: 0.270998
203333333313: Event_86: system.cpu progress event, total committed:165903306, progress insts committed: 2712627, IPC: 0.270991
206666666646: Event_86: system.cpu progress event, total committed:168615934, progress insts committed: 2712628, IPC: 0.270992
209999999979: Event_86: system.cpu progress event, total committed:171328391, progress insts committed: 2712457, IPC: 0.270974
213333333312: Event_86: system.cpu progress event, total committed:174040992, progress insts committed: 2712601, IPC: 0.270989
216666666645: Event_86: system.cpu progress event, total committed:176753617, progress insts committed: 2712625, IPC: 0.270991
219999999978: Event_86: system.cpu progress event, total committed:179466279, progress insts committed: 2712662, IPC: 0.270995
223333333311: Event_86: system.cpu progress event, total committed:182178967, progress insts committed: 2712688, IPC: 0.270998
226666666644: Event_86: system.cpu progress event, total committed:184891601, progress insts committed: 2712634, IPC: 0.270992
229999999977: Event_86: system.cpu progress event, total committed:187604228, progress insts committed: 2712627, IPC: 0.270991
233333333310: Event_86: system.cpu progress event, total committed:190316855, progress insts committed: 2712627, IPC: 0.270991
236666666643: Event_86: system.cpu progress event, total committed:193029283, progress insts committed: 2712428, IPC: 0.270972
239999999976: Event_86: system.cpu progress event, total committed:195741908, progress insts committed: 2712625, IPC: 0.270991
243333333309: Event_86: system.cpu progress event, total committed:198454567, progress insts committed: 2712659, IPC: 0.270995
246666666642: Event_86: system.cpu progress event, total committed:201167255, progress insts committed: 2712688, IPC: 0.270998
249999999975: Event_86: system.cpu progress event, total committed:203879895, progress insts committed: 2712640, IPC: 0.270993
253333333308: Event_86: system.cpu progress event, total committed:206592518, progress insts committed: 2712623, IPC: 0.270991
256666666641: Event_86: system.cpu progress event, total committed:209305143, progress insts committed: 2712625, IPC: 0.270991
259999999974: Event_86: system.cpu progress event, total committed:212017831, progress insts committed: 2712688, IPC: 0.270998
263333333307: Event_86: system.cpu progress event, total committed:214730203, progress insts committed: 2712372, IPC: 0.270966
266666666640: Event_86: system.cpu progress event, total committed:217442855, progress insts committed: 2712652, IPC: 0.270994
269999999973: Event_86: system.cpu progress event, total committed:220155543, progress insts committed: 2712688, IPC: 0.270998
273333333306: Event_86: system.cpu progress event, total committed:222868185, progress insts committed: 2712642, IPC: 0.270993
276666666639: Event_86: system.cpu progress event, total committed:225580809, progress insts committed: 2712624, IPC: 0.270991
279999999972: Event_86: system.cpu progress event, total committed:228293434, progress insts committed: 2712625, IPC: 0.270991
283333333305: Event_86: system.cpu progress event, total committed:231006119, progress insts committed: 2712685, IPC: 0.270997
286666666638: Event_86: system.cpu progress event, total committed:233718792, progress insts committed: 2712673, IPC: 0.270996
289999999971: Event_86: system.cpu progress event, total committed:236431143, progress insts committed: 2712351, IPC: 0.270964
293333333304: Event_86: system.cpu progress event, total committed:239143831, progress insts committed: 2712688, IPC: 0.270998
296666666637: Event_86: system.cpu progress event, total committed:241856478, progress insts committed: 2712647, IPC: 0.270993
299999999970: Event_86: system.cpu progress event, total committed:244569100, progress insts committed: 2712622, IPC: 0.270991
303333333303: Event_86: system.cpu progress event, total committed:247281724, progress insts committed: 2712624, IPC: 0.270991
306666666636: Event_86: system.cpu progress event, total committed:249994407, progress insts committed: 2712683, IPC: 0.270997
309999999969: Event_86: system.cpu progress event, total committed:252707087, progress insts committed: 2712680, IPC: 0.270997
313333333302: Event_86: system.cpu progress event, total committed:255419712, progress insts committed: 2712625, IPC: 0.270991
316666666635: Event_86: system.cpu progress event, total committed:258132119, progress insts committed: 2712407, IPC: 0.270969
319999999968: Event_86: system.cpu progress event, total committed:260844767, progress insts committed: 2712648, IPC: 0.270994
323333333301: Event_86: system.cpu progress event, total committed:263557393, progress insts committed: 2712626, IPC: 0.270991
326666666634: Event_86: system.cpu progress event, total committed:266270018, progress insts committed: 2712625, IPC: 0.270991
329999999967: Event_86: system.cpu progress event, total committed:268982695, progress insts committed: 2712677, IPC: 0.270996
333333333300: Event_86: system.cpu progress event, total committed:271695378, progress insts committed: 2712683, IPC: 0.270997
336666666633: Event_86: system.cpu progress event, total committed:274408002, progress insts committed: 2712624, IPC: 0.270991
339999999966: Event_86: system.cpu progress event, total committed:277120583, progress insts committed: 2712581, IPC: 0.270987
343333333299: Event_86: system.cpu progress event, total committed:279833062, progress insts committed: 2712479, IPC: 0.270977
346666666632: Event_86: system.cpu progress event, total committed:282545685, progress insts committed: 2712623, IPC: 0.270991
349999999965: Event_86: system.cpu progress event, total committed:285258312, progress insts committed: 2712627, IPC: 0.270991
353333333298: Event_86: system.cpu progress event, total committed:287970983, progress insts committed: 2712671, IPC: 0.270996
356666666631: Event_86: system.cpu progress event, total committed:290683669, progress insts committed: 2712686, IPC: 0.270997
359999999964: Event_86: system.cpu progress event, total committed:293396293, progress insts committed: 2712624, IPC: 0.270991
363333333297: Event_86: system.cpu progress event, total committed:296108918, progress insts committed: 2712625, IPC: 0.270991
366666666630: Event_86: system.cpu progress event, total committed:298821383, progress insts committed: 2712465, IPC: 0.270975
369999999963: Event_86: system.cpu progress event, total committed:301533980, progress insts committed: 2712597, IPC: 0.270988
373333333296: Event_86: system.cpu progress event, total committed:304246602, progress insts committed: 2712622, IPC: 0.270991
376666666629: Event_86: system.cpu progress event, total committed:306959271, progress insts committed: 2712669, IPC: 0.270996
379999999962: Event_86: system.cpu progress event, total committed:309671959, progress insts committed: 2712688, IPC: 0.270998
383333333295: Event_86: system.cpu progress event, total committed:312384584, progress insts committed: 2712625, IPC: 0.270991
386666666628: Event_86: system.cpu progress event, total committed:315097207, progress insts committed: 2712623, IPC: 0.270991
389999999961: Event_86: system.cpu progress event, total committed:317809847, progress insts committed: 2712640, IPC: 0.270993
393333333294: Event_86: system.cpu progress event, total committed:320522269, progress insts committed: 2712422, IPC: 0.270971
396666666627: Event_86: system.cpu progress event, total committed:323234893, progress insts committed: 2712624, IPC: 0.270991
399999999960: Event_86: system.cpu progress event, total committed:325947559, progress insts committed: 2712666, IPC: 0.270995
403333333293: Event_86: system.cpu progress event, total committed:328660247, progress insts committed: 2712688, IPC: 0.270998
406666666626: Event_86: system.cpu progress event, total committed:331372876, progress insts committed: 2712629, IPC: 0.270992
409999999959: Event_86: system.cpu progress event, total committed:334085502, progress insts committed: 2712626, IPC: 0.270991
413333333292: Event_86: system.cpu progress event, total committed:336798135, progress insts committed: 2712633, IPC: 0.270992
416666666625: Event_86: system.cpu progress event, total committed:339510823, progress insts committed: 2712688, IPC: 0.270998
419999999958: Event_86: system.cpu progress event, total committed:342223184, progress insts committed: 2712361, IPC: 0.270965
423333333291: Event_86: system.cpu progress event, total committed:344935847, progress insts committed: 2712663, IPC: 0.270995
426666666624: Event_86: system.cpu progress event, total committed:347648535, progress insts committed: 2712688, IPC: 0.270998
429999999957: Event_86: system.cpu progress event, total committed:350361171, progress insts committed: 2712636, IPC: 0.270992
433333333290: Event_86: system.cpu progress event, total committed:353073796, progress insts committed: 2712625, IPC: 0.270991
436666666623: Event_86: system.cpu progress event, total committed:355786423, progress insts committed: 2712627, IPC: 0.270991
439999999956: Event_86: system.cpu progress event, total committed:358499111, progress insts committed: 2712688, IPC: 0.270998
443333333289: Event_86: system.cpu progress event, total committed:361211777, progress insts committed: 2712666, IPC: 0.270995
446666666622: Event_86: system.cpu progress event, total committed:363924135, progress insts committed: 2712358, IPC: 0.270965
449999999955: Event_86: system.cpu progress event, total committed:366636823, progress insts committed: 2712688, IPC: 0.270998
453333333288: Event_86: system.cpu progress event, total committed:369349462, progress insts committed: 2712639, IPC: 0.270993
456666666621: Event_86: system.cpu progress event, total committed:372168745, progress insts committed: 2819283, IPC: 0.281646
459999999954: Event_86: system.cpu progress event, total committed:375032098, progress insts committed: 2863353, IPC: 0.286049
463333333287: Event_86: system.cpu progress event, total committed:377895458, progress insts committed: 2863360, IPC: 00.28605
466666666620: Event_86: system.cpu progress event, total committed:380758812, progress insts committed: 2863354, IPC: 0.286049
469999999953: Event_86: system.cpu progress event, total committed:383622171, progress insts committed: 2863359, IPC: 00.28605
473333333286: Event_86: system.cpu progress event, total committed:386485250, progress insts committed: 2863079, IPC: 0.286022
476666666619: Event_86: system.cpu progress event, total committed:389348594, progress insts committed: 2863344, IPC: 0.286048
479999999952: Event_86: system.cpu progress event, total committed:392211938, progress insts committed: 2863344, IPC: 0.286048
483333333285: Event_86: system.cpu progress event, total committed:395075282, progress insts committed: 2863344, IPC: 0.286048
486666666618: Event_86: system.cpu progress event, total committed:397938627, progress insts committed: 2863345, IPC: 0.286048
489999999951: Event_86: system.cpu progress event, total committed:400801987, progress insts committed: 2863360, IPC: 00.28605
493333333284: Event_86: system.cpu progress event, total committed:403665340, progress insts committed: 2863353, IPC: 0.286049
496666666617: Event_86: system.cpu progress event, total committed:406528658, progress insts committed: 2863318, IPC: 0.286045
499999999950: Event_86: system.cpu progress event, total committed:409391826, progress insts committed: 2863168, IPC: 00.28603
503333333283: Event_86: system.cpu progress event, total committed:412255170, progress insts committed: 2863344, IPC: 0.286048
506666666616: Event_86: system.cpu progress event, total committed:415118514, progress insts committed: 2863344, IPC: 0.286048
509999999949: Event_86: system.cpu progress event, total committed:417981858, progress insts committed: 2863344, IPC: 0.286048
513333333282: Event_86: system.cpu progress event, total committed:420845202, progress insts committed: 2863344, IPC: 0.286048
516666666615: Event_86: system.cpu progress event, total committed:423708546, progress insts committed: 2863344, IPC: 0.286048
519999999948: Event_86: system.cpu progress event, total committed:426571890, progress insts committed: 2863344, IPC: 0.286048
523333333281: Event_86: system.cpu progress event, total committed:429435058, progress insts committed: 2863168, IPC: 00.28603
526666666614: Event_86: system.cpu progress event, total committed:432298375, progress insts committed: 2863317, IPC: 0.286045
529999999947: Event_86: system.cpu progress event, total committed:435161728, progress insts committed: 2863353, IPC: 0.286049
533333333280: Event_86: system.cpu progress event, total committed:438025088, progress insts committed: 2863360, IPC: 00.28605
536666666613: Event_86: system.cpu progress event, total committed:440888434, progress insts committed: 2863346, IPC: 0.286048
539999999946: Event_86: system.cpu progress event, total committed:443751778, progress insts committed: 2863344, IPC: 0.286048
543333333279: Event_86: system.cpu progress event, total committed:446615122, progress insts committed: 2863344, IPC: 0.286048
546666666612: Event_86: system.cpu progress event, total committed:449478466, progress insts committed: 2863344, IPC: 0.286048
549999999945: Event_86: system.cpu progress event, total committed:452341544, progress insts committed: 2863078, IPC: 0.286021
553333333278: Event_86: system.cpu progress event, total committed:455204898, progress insts committed: 2863354, IPC: 0.286049
556666666611: Event_86: system.cpu progress event, total committed:458068257, progress insts committed: 2863359, IPC: 00.28605
559999999944: Event_86: system.cpu progress event, total committed:460931617, progress insts committed: 2863360, IPC: 00.28605
563333333277: Event_86: system.cpu progress event, total committed:463794970, progress insts committed: 2863353, IPC: 0.286049
566666666610: Event_86: system.cpu progress event, total committed:466658330, progress insts committed: 2863360, IPC: 00.28605
569999999943: Event_86: system.cpu progress event, total committed:469521687, progress insts committed: 2863357, IPC: 0.286049
573333333276: Event_86: system.cpu progress event, total committed:472385042, progress insts committed: 2863355, IPC: 0.286049
576666666609: Event_86: system.cpu progress event, total committed:475248073, progress insts committed: 2863031, IPC: 0.286017
579999999942: Event_86: system.cpu progress event, total committed:478111426, progress insts committed: 2863353, IPC: 0.286049
583333333275: Event_86: system.cpu progress event, total committed:480974786, progress insts committed: 2863360, IPC: 00.28605
586666666608: Event_86: system.cpu progress event, total committed:483838143, progress insts committed: 2863357, IPC: 0.286049
589999999941: Event_86: system.cpu progress event, total committed:486701499, progress insts committed: 2863356, IPC: 0.286049
593333333274: Event_86: system.cpu progress event, total committed:489564859, progress insts committed: 2863360, IPC: 00.28605
596666666607: Event_86: system.cpu progress event, total committed:492428212, progress insts committed: 2863353, IPC: 0.286049
599999999940: Event_86: system.cpu progress event, total committed:495291571, progress insts committed: 2863359, IPC: 00.28605
603333333273: Event_86: system.cpu progress event, total committed:498154610, progress insts committed: 2863039, IPC: 0.286018
606666666606: Event_86: system.cpu progress event, total committed:501017955, progress insts committed: 2863345, IPC: 0.286048
609999999939: Event_86: system.cpu progress event, total committed:503881315, progress insts committed: 2863360, IPC: 00.28605
613333333272: Event_86: system.cpu progress event, total committed:506744668, progress insts committed: 2863353, IPC: 0.286049
616666666605: Event_86: system.cpu progress event, total committed:509608028, progress insts committed: 2863360, IPC: 00.28605
619999999938: Event_86: system.cpu progress event, total committed:512471385, progress insts committed: 2863357, IPC: 0.286049
623333333271: Event_86: system.cpu progress event, total committed:515334741, progress insts committed: 2863356, IPC: 0.286049
626666666604: Event_86: system.cpu progress event, total committed:518198101, progress insts committed: 2863360, IPC: 00.28605
629999999937: Event_86: system.cpu progress event, total committed:521061186, progress insts committed: 2863085, IPC: 0.286022
633333333270: Event_86: system.cpu progress event, total committed:523924530, progress insts committed: 2863344, IPC: 0.286048
636666666603: Event_86: system.cpu progress event, total committed:526787874, progress insts committed: 2863344, IPC: 0.286048
639999999936: Event_86: system.cpu progress event, total committed:529651218, progress insts committed: 2863344, IPC: 0.286048
643333333269: Event_86: system.cpu progress event, total committed:532514562, progress insts committed: 2863344, IPC: 0.286048
646666666602: Event_86: system.cpu progress event, total committed:535377910, progress insts committed: 2863348, IPC: 0.286048
649999999935: Event_86: system.cpu progress event, total committed:538241270, progress insts committed: 2863360, IPC: 00.28605
653333333268: Event_86: system.cpu progress event, total committed:541104594, progress insts committed: 2863324, IPC: 0.286046
656666666601: Event_86: system.cpu progress event, total committed:543967762, progress insts committed: 2863168, IPC: 00.28603
659999999934: Event_86: system.cpu progress event, total committed:546831106, progress insts committed: 2863344, IPC: 0.286048
663333333267: Event_86: system.cpu progress event, total committed:549694450, progress insts committed: 2863344, IPC: 0.286048
666666666600: Event_86: system.cpu progress event, total committed:552557794, progress insts committed: 2863344, IPC: 0.286048
Round 10 sbox outputs: aa d6 69 65 9e 5f 4e b7 e2 6e 8f 71 e8 52 d9 7b 
669999999933: Event_86: system.cpu progress event, total committed:555416597, progress insts committed: 2858803, IPC: 0.285594
673333333266: Event_86: system.cpu progress event, total committed:558312517, progress insts committed: 2895920, IPC: 0.289302
676666666599: Event_86: system.cpu progress event, total committed:561210470, progress insts committed: 2897953, IPC: 0.289506
679999999932: Event_86: system.cpu progress event, total committed:564103910, progress insts committed: 2893440, IPC: 0.289055
683333333265: Event_86: system.cpu progress event, total committed:567000654, progress insts committed: 2896744, IPC: 0.289385
686666666598: Event_86: system.cpu progress event, total committed:569895894, progress insts committed: 2895240, IPC: 0.289234
689999999931: Event_86: system.cpu progress event, total committed:572791787, progress insts committed: 2895893, IPC: 000.2893
693333333264: Event_86: system.cpu progress event, total committed:575687526, progress insts committed: 2895739, IPC: 0.289284
696666666597: Event_86: system.cpu progress event, total committed:578584662, progress insts committed: 2897136, IPC: 0.289424
699999999930: Event_86: system.cpu progress event, total committed:581481986, progress insts committed: 2897324, IPC: 0.289443
703333333263: Event_86: system.cpu progress event, total committed:584376143, progress insts committed: 2894157, IPC: 0.289126
706666666596: Event_86: system.cpu progress event, total committed:587272232, progress insts committed: 2896089, IPC: 0.289319
709999999929: Event_86: system.cpu progress event, total committed:590168191, progress insts committed: 2895959, IPC: 0.289306
713333333262: Event_86: system.cpu progress event, total committed:593063478, progress insts committed: 2895287, IPC: 0.289239
716666666595: Event_86: system.cpu progress event, total committed:595960376, progress insts committed: 2896898, IPC: 000.2894
719999999928: Event_86: system.cpu progress event, total committed:598857352, progress insts committed: 2896976, IPC: 0.289408
723333333261: Event_86: system.cpu progress event, total committed:601755205, progress insts committed: 2897853, IPC: 0.289496
726666666594: Event_86: system.cpu progress event, total committed:604651670, progress insts committed: 2896465, IPC: 0.289357
729999999927: Event_86: system.cpu progress event, total committed:607545809, progress insts committed: 2894139, IPC: 0.289124
733333333260: Event_86: system.cpu progress event, total committed:610439632, progress insts committed: 2893823, IPC: 0.289093
736666666593: Event_86: system.cpu progress event, total committed:613337446, progress insts committed: 2897814, IPC: 0.289492
739999999926: Event_86: system.cpu progress event, total committed:616232660, progress insts committed: 2895214, IPC: 0.289232
743333333259: Event_86: system.cpu progress event, total committed:619129145, progress insts committed: 2896485, IPC: 0.289359
746666666592: Event_86: system.cpu progress event, total committed:622027798, progress insts committed: 2898653, IPC: 0.289575
749999999925: Event_86: system.cpu progress event, total committed:624927046, progress insts committed: 2899248, IPC: 0.289635
753333333258: Event_86: system.cpu progress event, total committed:627824354, progress insts committed: 2897308, IPC: 0.289441
756666666591: Event_86: system.cpu progress event, total committed:630717798, progress insts committed: 2893444, IPC: 0.289055
759999999924: Event_86: system.cpu progress event, total committed:633614054, progress insts committed: 2896256, IPC: 0.289336
763333333257: Event_86: system.cpu progress event, total committed:636512950, progress insts committed: 2898896, IPC: 000.2896
766666666590: Event_86: system.cpu progress event, total committed:639410266, progress insts committed: 2897316, IPC: 0.289442
769999999923: Event_86: system.cpu progress event, total committed:642309178, progress insts committed: 2898912, IPC: 0.289601
773333333256: Event_86: system.cpu progress event, total committed:645206822, progress insts committed: 2897644, IPC: 0.289475
776666666589: Event_86: system.cpu progress event, total committed:648103123, progress insts committed: 2896301, IPC: 00.28934
779999999922: Event_86: system.cpu progress event, total committed:651000038, progress insts committed: 2896915, IPC: 0.289402
783333333255: Event_86: system.cpu progress event, total committed:653896012, progress insts committed: 2895974, IPC: 0.289308
786666666588: Event_86: system.cpu progress event, total committed:656799414, progress insts committed: 2903402, IPC: 00.29005
789999999921: Event_86: system.cpu progress event, total committed:659696726, progress insts committed: 2897312, IPC: 0.289441
793333333254: Event_86: system.cpu progress event, total committed:662592517, progress insts committed: 2895791, IPC: 00.28929
796666666587: Event_86: system.cpu progress event, total committed:665487727, progress insts committed: 2895210, IPC: 0.289231
799999999920: Event_86: system.cpu progress event, total committed:668386902, progress insts committed: 2899175, IPC: 0.289628
803333333253: Event_86: system.cpu progress event, total committed:671285683, progress insts committed: 2898781, IPC: 0.289588
806666666586: Event_86: system.cpu progress event, total committed:674181361, progress insts committed: 2895678, IPC: 0.289278
809999999919: Event_86: system.cpu progress event, total committed:677077911, progress insts committed: 2896550, IPC: 0.289365
813333333252: Event_86: system.cpu progress event, total committed:679971926, progress insts committed: 2894015, IPC: 0.289112
816666666585: Event_86: system.cpu progress event, total committed:682867302, progress insts committed: 2895376, IPC: 0.289248
819999999918: Event_86: system.cpu progress event, total committed:685764438, progress insts committed: 2897136, IPC: 0.289424
823333333251: Event_86: system.cpu progress event, total committed:688660694, progress insts committed: 2896256, IPC: 0.289336
826666666584: Event_86: system.cpu progress event, total committed:691558750, progress insts committed: 2898056, IPC: 0.289516
829999999917: Event_86: system.cpu progress event, total committed:694457129, progress insts committed: 2898379, IPC: 0.289548
833333333250: Event_86: system.cpu progress event, total committed:697354413, progress insts committed: 2897284, IPC: 0.289439
836666666583: Event_86: system.cpu progress event, total committed:700252406, progress insts committed: 2897993, IPC: 00.28951
839999999916: Event_86: system.cpu progress event, total committed:703151566, progress insts committed: 2899160, IPC: 0.289626
843333333249: Event_86: system.cpu progress event, total committed:706048581, progress insts committed: 2897015, IPC: 0.289412
846666666582: Event_86: system.cpu progress event, total committed:708945553, progress insts committed: 2896972, IPC: 0.289408
849999999915: Event_86: system.cpu progress event, total committed:711842487, progress insts committed: 2896934, IPC: 0.289404
853333333248: Event_86: system.cpu progress event, total committed:714739318, progress insts committed: 2896831, IPC: 0.289393
856666666581: Event_86: system.cpu progress event, total committed:717638033, progress insts committed: 2898715, IPC: 0.289582
859999999914: Event_86: system.cpu progress event, total committed:720534822, progress insts committed: 2896789, IPC: 0.289389
863333333247: Event_86: system.cpu progress event, total committed:723430441, progress insts committed: 2895619, IPC: 0.289272
866666666580: Event_86: system.cpu progress event, total committed:726327945, progress insts committed: 2897504, IPC: 0.289461
869999999913: Event_86: system.cpu progress event, total committed:729226986, progress insts committed: 2899041, IPC: 0.289614
873333333246: Event_86: system.cpu progress event, total committed:732125410, progress insts committed: 2898424, IPC: 0.289553
876666666579: Event_86: system.cpu progress event, total committed:735023263, progress insts committed: 2897853, IPC: 0.289496
879999999912: Event_86: system.cpu progress event, total committed:737921334, progress insts committed: 2898071, IPC: 0.289517
Attacker access time(2f): 637731250,  for ciphertext: 74 cb fc 21 84 40 b2 63 05 f8 85 5a 63 57 14 97  and round 10 key: de 94 73 5a 1a 2e 6b 06 e7 aa ec ed 8b 81 5a e6 
Exiting @ tick 881649678789 because exiting with last active thread context
