gem5 Simulator System.  http://gem5.org
gem5 is copyrighted software; use the --copyright option for details.

gem5 compiled Dec 20 2024 16:10:06
gem5 started Dec 30 2024 18:44:12
gem5 executing on computenode3, pid 3989976
command line: /home/nimish/mirage/perf_analysis/gem5/build/X86/gem5.opt --outdir ./stats/stat_3585 /home/nimish/mirage/perf_analysis/gem5/configs/example/spec06_config_multiprogram.py --benchmark=specrand_i --num-cpus=1 --mem-size=8GB --mem-type=DDR4_2400_8x8 --cpu-type TimingSimpleCPU --caches --l2cache --l1d_size=512B --l1i_size=32kB --l2_size=16MB --l1d_assoc=8 --l1i_assoc=8 --l2_assoc=16 --mirage_mode=skew-vway-rand --l2_numSkews=2 --l2_TDR=1.75 --l2_EncrLat=3 --prog-interval=300Hz

Workload-0: 
['/home/nimish/mirage/AES_TBOX/C/build/AES-TBOX']
Global frequency set at 1000000000000 ticks per second
CWD: /home/nimish/mirage
      0: system.l2.replacement_policy: For Random Skew-Fair replacement policy: numSkews:2, assoc:28. 
      0: system.l2.tags.indexing_policy: Size of Tag-Store for Skewed-Assoc-Randomized - Sets:16384, with Assoc:28 
      0: system.l2.tags: Size of Tag-Store for Vway-Tags is 458752 lines, with assoc:28 and size 29360128 Bytes
      0: system.l2.tags: Actual Size of Cache seen from Vway-Tags is 262144 lines, with assoc:16 and size 16777216 Bytes
      0: system.l2.tags: Data Repl Policy: 0 (0-Random,1-Reuse).
**** REAL SIMULATION ****
3333333333: Event_86: system.cpu progress event, total committed:3146232, progress insts committed: 3146232, IPC: 0.314309
6666666666: Event_86: system.cpu progress event, total committed:5858898, progress insts committed: 2712666, IPC: 0.270995
9999999999: Event_86: system.cpu progress event, total committed:8571523, progress insts committed: 2712625, IPC: 0.270991
13333333332: Event_86: system.cpu progress event, total committed:11284146, progress insts committed: 2712623, IPC: 0.270991
16666666665: Event_86: system.cpu progress event, total committed:13996808, progress insts committed: 2712662, IPC: 0.270995
19999999998: Event_86: system.cpu progress event, total committed:16709496, progress insts committed: 2712688, IPC: 0.270998
23333333331: Event_86: system.cpu progress event, total committed:19422130, progress insts committed: 2712634, IPC: 0.270992
26666666664: Event_86: system.cpu progress event, total committed:22134696, progress insts committed: 2712566, IPC: 0.270985
29999999997: Event_86: system.cpu progress event, total committed:24847189, progress insts committed: 2712493, IPC: 0.270978
33333333330: Event_86: system.cpu progress event, total committed:27559812, progress insts committed: 2712623, IPC: 0.270991
36666666663: Event_86: system.cpu progress event, total committed:30272438, progress insts committed: 2712626, IPC: 0.270991
39999999996: Event_86: system.cpu progress event, total committed:32985096, progress insts committed: 2712658, IPC: 0.270995
43333333329: Event_86: system.cpu progress event, total committed:35697784, progress insts committed: 2712688, IPC: 0.270998
46666666662: Event_86: system.cpu progress event, total committed:38410424, progress insts committed: 2712640, IPC: 0.270993
49999999995: Event_86: system.cpu progress event, total committed:41123048, progress insts committed: 2712624, IPC: 0.270991
53333333328: Event_86: system.cpu progress event, total committed:43835496, progress insts committed: 2712448, IPC: 0.270974
56666666661: Event_86: system.cpu progress event, total committed:46548107, progress insts committed: 2712611, IPC: 00.27099
59999999994: Event_86: system.cpu progress event, total committed:49260732, progress insts committed: 2712625, IPC: 0.270991
63333333327: Event_86: system.cpu progress event, total committed:51973384, progress insts committed: 2712652, IPC: 0.270994
66666666660: Event_86: system.cpu progress event, total committed:54686072, progress insts committed: 2712688, IPC: 0.270998
69999999993: Event_86: system.cpu progress event, total committed:57398716, progress insts committed: 2712644, IPC: 0.270993
73333333326: Event_86: system.cpu progress event, total committed:60111338, progress insts committed: 2712622, IPC: 0.270991
76666666659: Event_86: system.cpu progress event, total committed:62823963, progress insts committed: 2712625, IPC: 0.270991
79999999992: Event_86: system.cpu progress event, total committed:65536401, progress insts committed: 2712438, IPC: 0.270973
83333333325: Event_86: system.cpu progress event, total committed:68249025, progress insts committed: 2712624, IPC: 0.270991
86666666658: Event_86: system.cpu progress event, total committed:70961672, progress insts committed: 2712647, IPC: 0.270993
89999999991: Event_86: system.cpu progress event, total committed:73674360, progress insts committed: 2712688, IPC: 0.270998
93333333324: Event_86: system.cpu progress event, total committed:76387007, progress insts committed: 2712647, IPC: 0.270993
96666666657: Event_86: system.cpu progress event, total committed:79099630, progress insts committed: 2712623, IPC: 0.270991
99999999990: Event_86: system.cpu progress event, total committed:81812253, progress insts committed: 2712623, IPC: 0.270991
103333333323: Event_86: system.cpu progress event, total committed:84524936, progress insts committed: 2712683, IPC: 0.270997
106666666656: Event_86: system.cpu progress event, total committed:87237314, progress insts committed: 2712378, IPC: 0.270967
109999999989: Event_86: system.cpu progress event, total committed:89949960, progress insts committed: 2712646, IPC: 0.270993
113333333322: Event_86: system.cpu progress event, total committed:92662648, progress insts committed: 2712688, IPC: 0.270998
116666666655: Event_86: system.cpu progress event, total committed:95375296, progress insts committed: 2712648, IPC: 0.270994
119999999988: Event_86: system.cpu progress event, total committed:98087921, progress insts committed: 2712625, IPC: 0.270991
123333333321: Event_86: system.cpu progress event, total committed:100800548, progress insts committed: 2712627, IPC: 0.270991
126666666654: Event_86: system.cpu progress event, total committed:103513224, progress insts committed: 2712676, IPC: 0.270996
129999999987: Event_86: system.cpu progress event, total committed:106225909, progress insts committed: 2712685, IPC: 0.270997
133333333320: Event_86: system.cpu progress event, total committed:108938248, progress insts committed: 2712339, IPC: 0.270963
136666666653: Event_86: system.cpu progress event, total committed:111650936, progress insts committed: 2712688, IPC: 0.270998
139999999986: Event_86: system.cpu progress event, total committed:114363591, progress insts committed: 2712655, IPC: 0.270994
143333333319: Event_86: system.cpu progress event, total committed:117076216, progress insts committed: 2712625, IPC: 0.270991
146666666652: Event_86: system.cpu progress event, total committed:119788841, progress insts committed: 2712625, IPC: 0.270991
149999999985: Event_86: system.cpu progress event, total committed:122501512, progress insts committed: 2712671, IPC: 0.270996
153333333318: Event_86: system.cpu progress event, total committed:125214198, progress insts committed: 2712686, IPC: 0.270997
156666666651: Event_86: system.cpu progress event, total committed:127926822, progress insts committed: 2712624, IPC: 0.270991
159999999984: Event_86: system.cpu progress event, total committed:130639224, progress insts committed: 2712402, IPC: 0.270969
163333333317: Event_86: system.cpu progress event, total committed:133351885, progress insts committed: 2712661, IPC: 0.270995
166666666650: Event_86: system.cpu progress event, total committed:136064508, progress insts committed: 2712623, IPC: 0.270991
169999999983: Event_86: system.cpu progress event, total committed:138777132, progress insts committed: 2712624, IPC: 0.270991
173333333316: Event_86: system.cpu progress event, total committed:141489800, progress insts committed: 2712668, IPC: 0.270996
176666666649: Event_86: system.cpu progress event, total committed:144202488, progress insts committed: 2712688, IPC: 0.270998
179999999982: Event_86: system.cpu progress event, total committed:146915113, progress insts committed: 2712625, IPC: 0.270991
183333333315: Event_86: system.cpu progress event, total committed:149627688, progress insts committed: 2712575, IPC: 0.270986
186666666648: Event_86: system.cpu progress event, total committed:152340175, progress insts committed: 2712487, IPC: 0.270977
189999999981: Event_86: system.cpu progress event, total committed:155052800, progress insts committed: 2712625, IPC: 0.270991
193333333314: Event_86: system.cpu progress event, total committed:157765422, progress insts committed: 2712622, IPC: 0.270991
196666666647: Event_86: system.cpu progress event, total committed:160478088, progress insts committed: 2712666, IPC: 0.270995
199999999980: Event_86: system.cpu progress event, total committed:163190776, progress insts committed: 2712688, IPC: 0.270998
203333333313: Event_86: system.cpu progress event, total committed:165903403, progress insts committed: 2712627, IPC: 0.270991
206666666646: Event_86: system.cpu progress event, total committed:168616031, progress insts committed: 2712628, IPC: 0.270992
209999999979: Event_86: system.cpu progress event, total committed:171328488, progress insts committed: 2712457, IPC: 0.270974
213333333312: Event_86: system.cpu progress event, total committed:174041089, progress insts committed: 2712601, IPC: 0.270989
216666666645: Event_86: system.cpu progress event, total committed:176753714, progress insts committed: 2712625, IPC: 0.270991
219999999978: Event_86: system.cpu progress event, total committed:179466376, progress insts committed: 2712662, IPC: 0.270995
223333333311: Event_86: system.cpu progress event, total committed:182179064, progress insts committed: 2712688, IPC: 0.270998
226666666644: Event_86: system.cpu progress event, total committed:184891698, progress insts committed: 2712634, IPC: 0.270992
229999999977: Event_86: system.cpu progress event, total committed:187604325, progress insts committed: 2712627, IPC: 0.270991
233333333310: Event_86: system.cpu progress event, total committed:190316952, progress insts committed: 2712627, IPC: 0.270991
236666666643: Event_86: system.cpu progress event, total committed:193029380, progress insts committed: 2712428, IPC: 0.270972
239999999976: Event_86: system.cpu progress event, total committed:195742005, progress insts committed: 2712625, IPC: 0.270991
243333333309: Event_86: system.cpu progress event, total committed:198454664, progress insts committed: 2712659, IPC: 0.270995
246666666642: Event_86: system.cpu progress event, total committed:201167352, progress insts committed: 2712688, IPC: 0.270998
249999999975: Event_86: system.cpu progress event, total committed:203879992, progress insts committed: 2712640, IPC: 0.270993
253333333308: Event_86: system.cpu progress event, total committed:206592615, progress insts committed: 2712623, IPC: 0.270991
256666666641: Event_86: system.cpu progress event, total committed:209305240, progress insts committed: 2712625, IPC: 0.270991
259999999974: Event_86: system.cpu progress event, total committed:212017928, progress insts committed: 2712688, IPC: 0.270998
263333333307: Event_86: system.cpu progress event, total committed:214730300, progress insts committed: 2712372, IPC: 0.270966
266666666640: Event_86: system.cpu progress event, total committed:217442952, progress insts committed: 2712652, IPC: 0.270994
269999999973: Event_86: system.cpu progress event, total committed:220155640, progress insts committed: 2712688, IPC: 0.270998
273333333306: Event_86: system.cpu progress event, total committed:222868282, progress insts committed: 2712642, IPC: 0.270993
276666666639: Event_86: system.cpu progress event, total committed:225580906, progress insts committed: 2712624, IPC: 0.270991
279999999972: Event_86: system.cpu progress event, total committed:228293531, progress insts committed: 2712625, IPC: 0.270991
283333333305: Event_86: system.cpu progress event, total committed:231006216, progress insts committed: 2712685, IPC: 0.270997
286666666638: Event_86: system.cpu progress event, total committed:233718889, progress insts committed: 2712673, IPC: 0.270996
289999999971: Event_86: system.cpu progress event, total committed:236431240, progress insts committed: 2712351, IPC: 0.270964
293333333304: Event_86: system.cpu progress event, total committed:239143928, progress insts committed: 2712688, IPC: 0.270998
296666666637: Event_86: system.cpu progress event, total committed:241856575, progress insts committed: 2712647, IPC: 0.270993
299999999970: Event_86: system.cpu progress event, total committed:244569197, progress insts committed: 2712622, IPC: 0.270991
303333333303: Event_86: system.cpu progress event, total committed:247281821, progress insts committed: 2712624, IPC: 0.270991
306666666636: Event_86: system.cpu progress event, total committed:249994504, progress insts committed: 2712683, IPC: 0.270997
309999999969: Event_86: system.cpu progress event, total committed:252707184, progress insts committed: 2712680, IPC: 0.270997
313333333302: Event_86: system.cpu progress event, total committed:255419809, progress insts committed: 2712625, IPC: 0.270991
316666666635: Event_86: system.cpu progress event, total committed:258132216, progress insts committed: 2712407, IPC: 0.270969
319999999968: Event_86: system.cpu progress event, total committed:260844864, progress insts committed: 2712648, IPC: 0.270994
323333333301: Event_86: system.cpu progress event, total committed:263557490, progress insts committed: 2712626, IPC: 0.270991
326666666634: Event_86: system.cpu progress event, total committed:266270115, progress insts committed: 2712625, IPC: 0.270991
329999999967: Event_86: system.cpu progress event, total committed:268982792, progress insts committed: 2712677, IPC: 0.270996
333333333300: Event_86: system.cpu progress event, total committed:271695475, progress insts committed: 2712683, IPC: 0.270997
336666666633: Event_86: system.cpu progress event, total committed:274408099, progress insts committed: 2712624, IPC: 0.270991
339999999966: Event_86: system.cpu progress event, total committed:277120680, progress insts committed: 2712581, IPC: 0.270987
343333333299: Event_86: system.cpu progress event, total committed:279833159, progress insts committed: 2712479, IPC: 0.270977
346666666632: Event_86: system.cpu progress event, total committed:282545782, progress insts committed: 2712623, IPC: 0.270991
349999999965: Event_86: system.cpu progress event, total committed:285258409, progress insts committed: 2712627, IPC: 0.270991
353333333298: Event_86: system.cpu progress event, total committed:287971080, progress insts committed: 2712671, IPC: 0.270996
356666666631: Event_86: system.cpu progress event, total committed:290683766, progress insts committed: 2712686, IPC: 0.270997
359999999964: Event_86: system.cpu progress event, total committed:293396390, progress insts committed: 2712624, IPC: 0.270991
363333333297: Event_86: system.cpu progress event, total committed:296109015, progress insts committed: 2712625, IPC: 0.270991
366666666630: Event_86: system.cpu progress event, total committed:298821480, progress insts committed: 2712465, IPC: 0.270975
369999999963: Event_86: system.cpu progress event, total committed:301534077, progress insts committed: 2712597, IPC: 0.270988
373333333296: Event_86: system.cpu progress event, total committed:304246699, progress insts committed: 2712622, IPC: 0.270991
376666666629: Event_86: system.cpu progress event, total committed:306959368, progress insts committed: 2712669, IPC: 0.270996
379999999962: Event_86: system.cpu progress event, total committed:309672056, progress insts committed: 2712688, IPC: 0.270998
383333333295: Event_86: system.cpu progress event, total committed:312384681, progress insts committed: 2712625, IPC: 0.270991
386666666628: Event_86: system.cpu progress event, total committed:315097304, progress insts committed: 2712623, IPC: 0.270991
389999999961: Event_86: system.cpu progress event, total committed:317809944, progress insts committed: 2712640, IPC: 0.270993
393333333294: Event_86: system.cpu progress event, total committed:320522366, progress insts committed: 2712422, IPC: 0.270971
396666666627: Event_86: system.cpu progress event, total committed:323234990, progress insts committed: 2712624, IPC: 0.270991
399999999960: Event_86: system.cpu progress event, total committed:325947656, progress insts committed: 2712666, IPC: 0.270995
403333333293: Event_86: system.cpu progress event, total committed:328660344, progress insts committed: 2712688, IPC: 0.270998
406666666626: Event_86: system.cpu progress event, total committed:331372973, progress insts committed: 2712629, IPC: 0.270992
409999999959: Event_86: system.cpu progress event, total committed:334085599, progress insts committed: 2712626, IPC: 0.270991
413333333292: Event_86: system.cpu progress event, total committed:336798232, progress insts committed: 2712633, IPC: 0.270992
416666666625: Event_86: system.cpu progress event, total committed:339510920, progress insts committed: 2712688, IPC: 0.270998
419999999958: Event_86: system.cpu progress event, total committed:342223281, progress insts committed: 2712361, IPC: 0.270965
423333333291: Event_86: system.cpu progress event, total committed:344935944, progress insts committed: 2712663, IPC: 0.270995
426666666624: Event_86: system.cpu progress event, total committed:347648632, progress insts committed: 2712688, IPC: 0.270998
429999999957: Event_86: system.cpu progress event, total committed:350361268, progress insts committed: 2712636, IPC: 0.270992
433333333290: Event_86: system.cpu progress event, total committed:353073893, progress insts committed: 2712625, IPC: 0.270991
436666666623: Event_86: system.cpu progress event, total committed:355786520, progress insts committed: 2712627, IPC: 0.270991
439999999956: Event_86: system.cpu progress event, total committed:358499208, progress insts committed: 2712688, IPC: 0.270998
443333333289: Event_86: system.cpu progress event, total committed:361211874, progress insts committed: 2712666, IPC: 0.270995
446666666622: Event_86: system.cpu progress event, total committed:363924232, progress insts committed: 2712358, IPC: 0.270965
449999999955: Event_86: system.cpu progress event, total committed:366636920, progress insts committed: 2712688, IPC: 0.270998
453333333288: Event_86: system.cpu progress event, total committed:369349559, progress insts committed: 2712639, IPC: 0.270993
456666666621: Event_86: system.cpu progress event, total committed:372168842, progress insts committed: 2819283, IPC: 0.281646
459999999954: Event_86: system.cpu progress event, total committed:375032195, progress insts committed: 2863353, IPC: 0.286049
463333333287: Event_86: system.cpu progress event, total committed:377895555, progress insts committed: 2863360, IPC: 00.28605
466666666620: Event_86: system.cpu progress event, total committed:380758909, progress insts committed: 2863354, IPC: 0.286049
469999999953: Event_86: system.cpu progress event, total committed:383622268, progress insts committed: 2863359, IPC: 00.28605
473333333286: Event_86: system.cpu progress event, total committed:386485347, progress insts committed: 2863079, IPC: 0.286022
476666666619: Event_86: system.cpu progress event, total committed:389348691, progress insts committed: 2863344, IPC: 0.286048
479999999952: Event_86: system.cpu progress event, total committed:392212035, progress insts committed: 2863344, IPC: 0.286048
483333333285: Event_86: system.cpu progress event, total committed:395075379, progress insts committed: 2863344, IPC: 0.286048
486666666618: Event_86: system.cpu progress event, total committed:397938724, progress insts committed: 2863345, IPC: 0.286048
489999999951: Event_86: system.cpu progress event, total committed:400802084, progress insts committed: 2863360, IPC: 00.28605
493333333284: Event_86: system.cpu progress event, total committed:403665437, progress insts committed: 2863353, IPC: 0.286049
496666666617: Event_86: system.cpu progress event, total committed:406528755, progress insts committed: 2863318, IPC: 0.286045
499999999950: Event_86: system.cpu progress event, total committed:409391923, progress insts committed: 2863168, IPC: 00.28603
503333333283: Event_86: system.cpu progress event, total committed:412255267, progress insts committed: 2863344, IPC: 0.286048
506666666616: Event_86: system.cpu progress event, total committed:415118611, progress insts committed: 2863344, IPC: 0.286048
509999999949: Event_86: system.cpu progress event, total committed:417981955, progress insts committed: 2863344, IPC: 0.286048
513333333282: Event_86: system.cpu progress event, total committed:420845299, progress insts committed: 2863344, IPC: 0.286048
516666666615: Event_86: system.cpu progress event, total committed:423708643, progress insts committed: 2863344, IPC: 0.286048
519999999948: Event_86: system.cpu progress event, total committed:426571987, progress insts committed: 2863344, IPC: 0.286048
523333333281: Event_86: system.cpu progress event, total committed:429435155, progress insts committed: 2863168, IPC: 00.28603
526666666614: Event_86: system.cpu progress event, total committed:432298472, progress insts committed: 2863317, IPC: 0.286045
529999999947: Event_86: system.cpu progress event, total committed:435161825, progress insts committed: 2863353, IPC: 0.286049
533333333280: Event_86: system.cpu progress event, total committed:438025185, progress insts committed: 2863360, IPC: 00.28605
536666666613: Event_86: system.cpu progress event, total committed:440888531, progress insts committed: 2863346, IPC: 0.286048
539999999946: Event_86: system.cpu progress event, total committed:443751875, progress insts committed: 2863344, IPC: 0.286048
543333333279: Event_86: system.cpu progress event, total committed:446615219, progress insts committed: 2863344, IPC: 0.286048
546666666612: Event_86: system.cpu progress event, total committed:449478563, progress insts committed: 2863344, IPC: 0.286048
549999999945: Event_86: system.cpu progress event, total committed:452341641, progress insts committed: 2863078, IPC: 0.286021
553333333278: Event_86: system.cpu progress event, total committed:455204995, progress insts committed: 2863354, IPC: 0.286049
556666666611: Event_86: system.cpu progress event, total committed:458068354, progress insts committed: 2863359, IPC: 00.28605
559999999944: Event_86: system.cpu progress event, total committed:460931714, progress insts committed: 2863360, IPC: 00.28605
563333333277: Event_86: system.cpu progress event, total committed:463795067, progress insts committed: 2863353, IPC: 0.286049
566666666610: Event_86: system.cpu progress event, total committed:466658427, progress insts committed: 2863360, IPC: 00.28605
569999999943: Event_86: system.cpu progress event, total committed:469521784, progress insts committed: 2863357, IPC: 0.286049
573333333276: Event_86: system.cpu progress event, total committed:472385139, progress insts committed: 2863355, IPC: 0.286049
576666666609: Event_86: system.cpu progress event, total committed:475248170, progress insts committed: 2863031, IPC: 0.286017
579999999942: Event_86: system.cpu progress event, total committed:478111523, progress insts committed: 2863353, IPC: 0.286049
583333333275: Event_86: system.cpu progress event, total committed:480974883, progress insts committed: 2863360, IPC: 00.28605
586666666608: Event_86: system.cpu progress event, total committed:483838240, progress insts committed: 2863357, IPC: 0.286049
589999999941: Event_86: system.cpu progress event, total committed:486701596, progress insts committed: 2863356, IPC: 0.286049
593333333274: Event_86: system.cpu progress event, total committed:489564956, progress insts committed: 2863360, IPC: 00.28605
596666666607: Event_86: system.cpu progress event, total committed:492428309, progress insts committed: 2863353, IPC: 0.286049
599999999940: Event_86: system.cpu progress event, total committed:495291668, progress insts committed: 2863359, IPC: 00.28605
603333333273: Event_86: system.cpu progress event, total committed:498154707, progress insts committed: 2863039, IPC: 0.286018
606666666606: Event_86: system.cpu progress event, total committed:501018052, progress insts committed: 2863345, IPC: 0.286048
609999999939: Event_86: system.cpu progress event, total committed:503881412, progress insts committed: 2863360, IPC: 00.28605
613333333272: Event_86: system.cpu progress event, total committed:506744765, progress insts committed: 2863353, IPC: 0.286049
616666666605: Event_86: system.cpu progress event, total committed:509608125, progress insts committed: 2863360, IPC: 00.28605
619999999938: Event_86: system.cpu progress event, total committed:512471482, progress insts committed: 2863357, IPC: 0.286049
623333333271: Event_86: system.cpu progress event, total committed:515334838, progress insts committed: 2863356, IPC: 0.286049
626666666604: Event_86: system.cpu progress event, total committed:518198198, progress insts committed: 2863360, IPC: 00.28605
629999999937: Event_86: system.cpu progress event, total committed:521061283, progress insts committed: 2863085, IPC: 0.286022
633333333270: Event_86: system.cpu progress event, total committed:523924627, progress insts committed: 2863344, IPC: 0.286048
636666666603: Event_86: system.cpu progress event, total committed:526787971, progress insts committed: 2863344, IPC: 0.286048
639999999936: Event_86: system.cpu progress event, total committed:529651315, progress insts committed: 2863344, IPC: 0.286048
643333333269: Event_86: system.cpu progress event, total committed:532514659, progress insts committed: 2863344, IPC: 0.286048
646666666602: Event_86: system.cpu progress event, total committed:535378007, progress insts committed: 2863348, IPC: 0.286048
649999999935: Event_86: system.cpu progress event, total committed:538241367, progress insts committed: 2863360, IPC: 00.28605
653333333268: Event_86: system.cpu progress event, total committed:541104691, progress insts committed: 2863324, IPC: 0.286046
656666666601: Event_86: system.cpu progress event, total committed:543967859, progress insts committed: 2863168, IPC: 00.28603
659999999934: Event_86: system.cpu progress event, total committed:546831203, progress insts committed: 2863344, IPC: 0.286048
663333333267: Event_86: system.cpu progress event, total committed:549694547, progress insts committed: 2863344, IPC: 0.286048
666666666600: Event_86: system.cpu progress event, total committed:552557891, progress insts committed: 2863344, IPC: 0.286048
Round 10 sbox outputs: 28 f7 e3 27 26 ef 08 df ee ce 45 5a 82 08 9e bb 
669999999933: Event_86: system.cpu progress event, total committed:555415903, progress insts committed: 2858012, IPC: 0.285515
673333333266: Event_86: system.cpu progress event, total committed:558311928, progress insts committed: 2896025, IPC: 0.289313
676666666599: Event_86: system.cpu progress event, total committed:561209823, progress insts committed: 2897895, IPC: 000.2895
679999999932: Event_86: system.cpu progress event, total committed:564103615, progress insts committed: 2893792, IPC: 00.28909
683333333265: Event_86: system.cpu progress event, total committed:566999479, progress insts committed: 2895864, IPC: 0.289297
686666666598: Event_86: system.cpu progress event, total committed:569893839, progress insts committed: 2894360, IPC: 0.289147
689999999931: Event_86: system.cpu progress event, total committed:572789732, progress insts committed: 2895893, IPC: 000.2893
693333333264: Event_86: system.cpu progress event, total committed:575685647, progress insts committed: 2895915, IPC: 0.289302
696666666597: Event_86: system.cpu progress event, total committed:578583311, progress insts committed: 2897664, IPC: 0.289477
699999999930: Event_86: system.cpu progress event, total committed:581480271, progress insts committed: 2896960, IPC: 0.289406
703333333263: Event_86: system.cpu progress event, total committed:584376552, progress insts committed: 2896281, IPC: 0.289338
706666666596: Event_86: system.cpu progress event, total committed:587272817, progress insts committed: 2896265, IPC: 0.289337
709999999929: Event_86: system.cpu progress event, total committed:590168776, progress insts committed: 2895959, IPC: 0.289306
713333333262: Event_86: system.cpu progress event, total committed:593064063, progress insts committed: 2895287, IPC: 0.289239
716666666595: Event_86: system.cpu progress event, total committed:595960961, progress insts committed: 2896898, IPC: 000.2894
719999999928: Event_86: system.cpu progress event, total committed:598857937, progress insts committed: 2896976, IPC: 0.289408
723333333261: Event_86: system.cpu progress event, total committed:601755790, progress insts committed: 2897853, IPC: 0.289496
726666666594: Event_86: system.cpu progress event, total committed:604652255, progress insts committed: 2896465, IPC: 0.289357
729999999927: Event_86: system.cpu progress event, total committed:607546394, progress insts committed: 2894139, IPC: 0.289124
733333333260: Event_86: system.cpu progress event, total committed:610440217, progress insts committed: 2893823, IPC: 0.289093
736666666593: Event_86: system.cpu progress event, total committed:613338031, progress insts committed: 2897814, IPC: 0.289492
739999999926: Event_86: system.cpu progress event, total committed:616233245, progress insts committed: 2895214, IPC: 0.289232
743333333259: Event_86: system.cpu progress event, total committed:619129730, progress insts committed: 2896485, IPC: 0.289359
746666666592: Event_86: system.cpu progress event, total committed:622028383, progress insts committed: 2898653, IPC: 0.289575
749999999925: Event_86: system.cpu progress event, total committed:624927631, progress insts committed: 2899248, IPC: 0.289635
753333333258: Event_86: system.cpu progress event, total committed:627824939, progress insts committed: 2897308, IPC: 0.289441
756666666591: Event_86: system.cpu progress event, total committed:630718383, progress insts committed: 2893444, IPC: 0.289055
759999999924: Event_86: system.cpu progress event, total committed:633614639, progress insts committed: 2896256, IPC: 0.289336
763333333257: Event_86: system.cpu progress event, total committed:636513535, progress insts committed: 2898896, IPC: 000.2896
766666666590: Event_86: system.cpu progress event, total committed:639410851, progress insts committed: 2897316, IPC: 0.289442
769999999923: Event_86: system.cpu progress event, total committed:642309763, progress insts committed: 2898912, IPC: 0.289601
773333333256: Event_86: system.cpu progress event, total committed:645207407, progress insts committed: 2897644, IPC: 0.289475
776666666589: Event_86: system.cpu progress event, total committed:648103708, progress insts committed: 2896301, IPC: 00.28934
779999999922: Event_86: system.cpu progress event, total committed:651000623, progress insts committed: 2896915, IPC: 0.289402
783333333255: Event_86: system.cpu progress event, total committed:653896597, progress insts committed: 2895974, IPC: 0.289308
786666666588: Event_86: system.cpu progress event, total committed:656799999, progress insts committed: 2903402, IPC: 00.29005
789999999921: Event_86: system.cpu progress event, total committed:659697311, progress insts committed: 2897312, IPC: 0.289441
793333333254: Event_86: system.cpu progress event, total committed:662593102, progress insts committed: 2895791, IPC: 00.28929
796666666587: Event_86: system.cpu progress event, total committed:665488312, progress insts committed: 2895210, IPC: 0.289231
799999999920: Event_86: system.cpu progress event, total committed:668387487, progress insts committed: 2899175, IPC: 0.289628
803333333253: Event_86: system.cpu progress event, total committed:671286268, progress insts committed: 2898781, IPC: 0.289588
806666666586: Event_86: system.cpu progress event, total committed:674181946, progress insts committed: 2895678, IPC: 0.289278
809999999919: Event_86: system.cpu progress event, total committed:677078496, progress insts committed: 2896550, IPC: 0.289365
813333333252: Event_86: system.cpu progress event, total committed:679972511, progress insts committed: 2894015, IPC: 0.289112
816666666585: Event_86: system.cpu progress event, total committed:682867887, progress insts committed: 2895376, IPC: 0.289248
819999999918: Event_86: system.cpu progress event, total committed:685765023, progress insts committed: 2897136, IPC: 0.289424
823333333251: Event_86: system.cpu progress event, total committed:688661279, progress insts committed: 2896256, IPC: 0.289336
826666666584: Event_86: system.cpu progress event, total committed:691559335, progress insts committed: 2898056, IPC: 0.289516
829999999917: Event_86: system.cpu progress event, total committed:694457714, progress insts committed: 2898379, IPC: 0.289548
833333333250: Event_86: system.cpu progress event, total committed:697354998, progress insts committed: 2897284, IPC: 0.289439
836666666583: Event_86: system.cpu progress event, total committed:700252991, progress insts committed: 2897993, IPC: 00.28951
839999999916: Event_86: system.cpu progress event, total committed:703152151, progress insts committed: 2899160, IPC: 0.289626
843333333249: Event_86: system.cpu progress event, total committed:706049166, progress insts committed: 2897015, IPC: 0.289412
846666666582: Event_86: system.cpu progress event, total committed:708946138, progress insts committed: 2896972, IPC: 0.289408
849999999915: Event_86: system.cpu progress event, total committed:711843072, progress insts committed: 2896934, IPC: 0.289404
853333333248: Event_86: system.cpu progress event, total committed:714739903, progress insts committed: 2896831, IPC: 0.289393
856666666581: Event_86: system.cpu progress event, total committed:717638618, progress insts committed: 2898715, IPC: 0.289582
859999999914: Event_86: system.cpu progress event, total committed:720535407, progress insts committed: 2896789, IPC: 0.289389
863333333247: Event_86: system.cpu progress event, total committed:723431026, progress insts committed: 2895619, IPC: 0.289272
866666666580: Event_86: system.cpu progress event, total committed:726328530, progress insts committed: 2897504, IPC: 0.289461
869999999913: Event_86: system.cpu progress event, total committed:729227571, progress insts committed: 2899041, IPC: 0.289614
873333333246: Event_86: system.cpu progress event, total committed:732125995, progress insts committed: 2898424, IPC: 0.289553
876666666579: Event_86: system.cpu progress event, total committed:735023848, progress insts committed: 2897853, IPC: 0.289496
879999999912: Event_86: system.cpu progress event, total committed:737921919, progress insts committed: 2898071, IPC: 0.289517
Attacker access time(2f): 637725707,  for ciphertext: f6 7b 36 e1 3c e0 f5 21 09 a2 0f 32 09 76 52 bc  and round 10 key: de 94 73 5a 1a 2e 6b 06 e7 aa ec ed 8b 81 5a e6 
Exiting @ tick 881649707760 because exiting with last active thread context
