
---------- Begin Simulation Statistics ----------
final_tick                               3739100502654                       # Number of ticks from beginning of simulation (restored from checkpoints and never reset)
host_inst_rate                                 541446                       # Simulator instruction rate (inst/s)
host_mem_usage                               10718552                       # Number of bytes of host memory used
host_op_rate                                   815648                       # Simulator op (including micro ops) rate (op/s)
host_seconds                                  1898.23                       # Real time elapsed on the host
host_tick_rate                             1969784508                       # Simulator tick rate (ticks/s)
sim_freq                                 1000000000000                       # Frequency of simulated ticks
sim_insts                                  1027788100                       # Number of instructions simulated
sim_ops                                    1548286579                       # Number of ops (including micro ops) simulated
sim_seconds                                  3.739101                       # Number of seconds simulated
sim_ticks                                3739100502654                       # Number of ticks simulated
system.cpu0.Branches                          2780018                       # Number of branches fetched
system.cpu0.committedInsts                   27788099                       # Number of instructions committed
system.cpu0.committedOps                     52797721                       # Number of ops (including micro ops) committed
system.cpu0.dtb.rdAccesses                   11113063                       # TLB accesses on read requests
system.cpu0.dtb.rdMisses                         5446                       # TLB misses on read requests
system.cpu0.dtb.wrAccesses                    5557395                       # TLB accesses on write requests
system.cpu0.dtb.wrMisses                            8                       # TLB misses on write requests
system.cpu0.idle_fraction                    0.981877                       # Percentage of idle cycles
system.cpu0.itb.rdAccesses                          0                       # TLB accesses on read requests
system.cpu0.itb.rdMisses                            0                       # TLB misses on read requests
system.cpu0.itb.wrAccesses                   38902351                       # TLB accesses on write requests
system.cpu0.itb.wrMisses                           46                       # TLB misses on write requests
system.cpu0.not_idle_fraction                0.018123                       # Percentage of non-idle cycles
system.cpu0.numCycles                       203497532                       # number of cpu cycles simulated
system.cpu0.numWorkItemsCompleted                   0                       # number of work items this cpu completed
system.cpu0.numWorkItemsStarted                     0                       # number of work items this cpu started
system.cpu0.num_busy_cycles              3688038.005860                       # Number of busy cycles
system.cpu0.num_cc_register_reads            13899961                       # number of times the CC registers were read
system.cpu0.num_cc_register_writes           16672913                       # number of times the CC registers were written
system.cpu0.num_conditional_control_insts      2779471                       # number of instructions that are conditional controls
system.cpu0.num_fp_alu_accesses                  1214                       # Number of float alu accesses
system.cpu0.num_fp_insts                         1214                       # number of float instructions
system.cpu0.num_fp_register_reads                1401                       # number of times the floating registers were read
system.cpu0.num_fp_register_writes                679                       # number of times the floating registers were written
system.cpu0.num_func_calls                        384                       # number of times a function call or return occured
system.cpu0.num_idle_cycles              199809493.994140                       # Number of idle cycles
system.cpu0.num_int_alu_accesses             52796880                       # Number of integer alu accesses
system.cpu0.num_int_insts                    52796880                       # number of integer instructions
system.cpu0.num_int_register_reads          105592520                       # number of times the integer registers were read
system.cpu0.num_int_register_writes          44459432                       # number of times the integer registers were written
system.cpu0.num_load_insts                   11113060                       # Number of load instructions
system.cpu0.num_mem_refs                     16670454                       # number of memory refs
system.cpu0.num_store_insts                   5557394                       # Number of store instructions
system.cpu0.num_vec_alu_accesses                    0                       # Number of vector alu accesses
system.cpu0.num_vec_insts                           0                       # number of vector instructions
system.cpu0.num_vec_register_reads                  0                       # number of times the vector registers were read
system.cpu0.num_vec_register_writes                 0                       # number of times the vector registers were written
system.cpu0.op_class::No_OpClass                  336      0.00%      0.00% # Class of executed instruction
system.cpu0.op_class::IntAlu                 36126368     68.42%     68.42% # Class of executed instruction
system.cpu0.op_class::IntMult                       5      0.00%     68.42% # Class of executed instruction
system.cpu0.op_class::IntDiv                       28      0.00%     68.42% # Class of executed instruction
system.cpu0.op_class::FloatAdd                    144      0.00%     68.43% # Class of executed instruction
system.cpu0.op_class::FloatCmp                      0      0.00%     68.43% # Class of executed instruction
system.cpu0.op_class::FloatCvt                      0      0.00%     68.43% # Class of executed instruction
system.cpu0.op_class::FloatMult                     0      0.00%     68.43% # Class of executed instruction
system.cpu0.op_class::FloatMultAcc                  0      0.00%     68.43% # Class of executed instruction
system.cpu0.op_class::FloatDiv                      0      0.00%     68.43% # Class of executed instruction
system.cpu0.op_class::FloatMisc                     0      0.00%     68.43% # Class of executed instruction
system.cpu0.op_class::FloatSqrt                     0      0.00%     68.43% # Class of executed instruction
system.cpu0.op_class::SimdAdd                       0      0.00%     68.43% # Class of executed instruction
system.cpu0.op_class::SimdAddAcc                    0      0.00%     68.43% # Class of executed instruction
system.cpu0.op_class::SimdAlu                     104      0.00%     68.43% # Class of executed instruction
system.cpu0.op_class::SimdCmp                       0      0.00%     68.43% # Class of executed instruction
system.cpu0.op_class::SimdCvt                      54      0.00%     68.43% # Class of executed instruction
system.cpu0.op_class::SimdMisc                    228      0.00%     68.43% # Class of executed instruction
system.cpu0.op_class::SimdMult                      0      0.00%     68.43% # Class of executed instruction
system.cpu0.op_class::SimdMultAcc                   0      0.00%     68.43% # Class of executed instruction
system.cpu0.op_class::SimdShift                     0      0.00%     68.43% # Class of executed instruction
system.cpu0.op_class::SimdShiftAcc                  0      0.00%     68.43% # Class of executed instruction
system.cpu0.op_class::SimdDiv                       0      0.00%     68.43% # Class of executed instruction
system.cpu0.op_class::SimdSqrt                      0      0.00%     68.43% # Class of executed instruction
system.cpu0.op_class::SimdFloatAdd                  0      0.00%     68.43% # Class of executed instruction
system.cpu0.op_class::SimdFloatAlu                  0      0.00%     68.43% # Class of executed instruction
system.cpu0.op_class::SimdFloatCmp                  0      0.00%     68.43% # Class of executed instruction
system.cpu0.op_class::SimdFloatCvt                  0      0.00%     68.43% # Class of executed instruction
system.cpu0.op_class::SimdFloatDiv                  0      0.00%     68.43% # Class of executed instruction
system.cpu0.op_class::SimdFloatMisc                 0      0.00%     68.43% # Class of executed instruction
system.cpu0.op_class::SimdFloatMult                 0      0.00%     68.43% # Class of executed instruction
system.cpu0.op_class::SimdFloatMultAcc              0      0.00%     68.43% # Class of executed instruction
system.cpu0.op_class::SimdFloatSqrt                 0      0.00%     68.43% # Class of executed instruction
system.cpu0.op_class::SimdReduceAdd                 0      0.00%     68.43% # Class of executed instruction
system.cpu0.op_class::SimdReduceAlu                 0      0.00%     68.43% # Class of executed instruction
system.cpu0.op_class::SimdReduceCmp                 0      0.00%     68.43% # Class of executed instruction
system.cpu0.op_class::SimdFloatReduceAdd            0      0.00%     68.43% # Class of executed instruction
system.cpu0.op_class::SimdFloatReduceCmp            0      0.00%     68.43% # Class of executed instruction
system.cpu0.op_class::SimdAes                       0      0.00%     68.43% # Class of executed instruction
system.cpu0.op_class::SimdAesMix                    0      0.00%     68.43% # Class of executed instruction
system.cpu0.op_class::SimdSha1Hash                  0      0.00%     68.43% # Class of executed instruction
system.cpu0.op_class::SimdSha1Hash2                 0      0.00%     68.43% # Class of executed instruction
system.cpu0.op_class::SimdSha256Hash                0      0.00%     68.43% # Class of executed instruction
system.cpu0.op_class::SimdSha256Hash2               0      0.00%     68.43% # Class of executed instruction
system.cpu0.op_class::SimdShaSigma2                 0      0.00%     68.43% # Class of executed instruction
system.cpu0.op_class::SimdShaSigma3                 0      0.00%     68.43% # Class of executed instruction
system.cpu0.op_class::SimdPredAlu                   0      0.00%     68.43% # Class of executed instruction
system.cpu0.op_class::MemRead                11113000     21.05%     89.47% # Class of executed instruction
system.cpu0.op_class::MemWrite                5556913     10.52%    100.00% # Class of executed instruction
system.cpu0.op_class::FloatMemRead                 60      0.00%    100.00% # Class of executed instruction
system.cpu0.op_class::FloatMemWrite               481      0.00%    100.00% # Class of executed instruction
system.cpu0.op_class::IprAccess                     0      0.00%    100.00% # Class of executed instruction
system.cpu0.op_class::InstPrefetch                  0      0.00%    100.00% # Class of executed instruction
system.cpu0.op_class::total                  52797721                       # Class of executed instruction
system.cpu0.workload.numSyscalls                   12                       # Number of system calls
system.cpu1.Branches                         37087956                       # Number of branches fetched
system.cpu1.committedInsts                 1000000001                       # Number of instructions committed
system.cpu1.committedOps                   1495488858                       # Number of ops (including micro ops) committed
system.cpu1.dtb.rdAccesses                  247647761                       # TLB accesses on read requests
system.cpu1.dtb.rdMisses                       161140                       # TLB misses on read requests
system.cpu1.dtb.wrAccesses                  178189382                       # TLB accesses on write requests
system.cpu1.dtb.wrMisses                       322805                       # TLB misses on write requests
system.cpu1.idle_fraction                           0                       # Percentage of idle cycles
system.cpu1.itb.rdAccesses                          0                       # TLB accesses on read requests
system.cpu1.itb.rdMisses                            0                       # TLB misses on read requests
system.cpu1.itb.wrAccesses                 1498540856                       # TLB accesses on write requests
system.cpu1.itb.wrMisses                           61                       # TLB misses on write requests
system.cpu1.not_idle_fraction                       1                       # Percentage of non-idle cycles
system.cpu1.numCycles                     11228530038                       # number of cpu cycles simulated
system.cpu1.numWorkItemsCompleted                   0                       # number of work items this cpu completed
system.cpu1.numWorkItemsStarted                     0                       # number of work items this cpu started
system.cpu1.num_busy_cycles               11228530038                       # Number of busy cycles
system.cpu1.num_cc_register_reads           163656721                       # number of times the CC registers were read
system.cpu1.num_cc_register_writes          105819023                       # number of times the CC registers were written
system.cpu1.num_conditional_control_insts     30294394                       # number of instructions that are conditional controls
system.cpu1.num_fp_alu_accesses            1204803429                       # Number of float alu accesses
system.cpu1.num_fp_insts                   1204803429                       # number of float instructions
system.cpu1.num_fp_register_reads          1942567893                       # number of times the floating registers were read
system.cpu1.num_fp_register_writes         1040269768                       # number of times the floating registers were written
system.cpu1.num_func_calls                    5255871                       # number of times a function call or return occured
system.cpu1.num_idle_cycles                         0                       # Number of idle cycles
system.cpu1.num_int_alu_accesses            678183494                       # Number of integer alu accesses
system.cpu1.num_int_insts                   678183494                       # number of integer instructions
system.cpu1.num_int_register_reads         1646444849                       # number of times the integer registers were read
system.cpu1.num_int_register_writes         237286133                       # number of times the integer registers were written
system.cpu1.num_load_insts                  247647740                       # Number of load instructions
system.cpu1.num_mem_refs                    425837118                       # number of memory refs
system.cpu1.num_store_insts                 178189378                       # Number of store instructions
system.cpu1.num_vec_alu_accesses                    0                       # Number of vector alu accesses
system.cpu1.num_vec_insts                           0                       # number of vector instructions
system.cpu1.num_vec_register_reads                  0                       # number of times the vector registers were read
system.cpu1.num_vec_register_writes                 0                       # number of times the vector registers were written
system.cpu1.op_class::No_OpClass              2655668      0.18%      0.18% # Class of executed instruction
system.cpu1.op_class::IntAlu                418893123     28.01%     28.19% # Class of executed instruction
system.cpu1.op_class::IntMult                      88      0.00%     28.19% # Class of executed instruction
system.cpu1.op_class::IntDiv                      112      0.00%     28.19% # Class of executed instruction
system.cpu1.op_class::FloatAdd              166437015     11.13%     39.32% # Class of executed instruction
system.cpu1.op_class::FloatCmp                      0      0.00%     39.32% # Class of executed instruction
system.cpu1.op_class::FloatCvt                      0      0.00%     39.32% # Class of executed instruction
system.cpu1.op_class::FloatMult                     0      0.00%     39.32% # Class of executed instruction
system.cpu1.op_class::FloatMultAcc                  0      0.00%     39.32% # Class of executed instruction
system.cpu1.op_class::FloatDiv                      0      0.00%     39.32% # Class of executed instruction
system.cpu1.op_class::FloatMisc                     0      0.00%     39.32% # Class of executed instruction
system.cpu1.op_class::FloatSqrt                     0      0.00%     39.32% # Class of executed instruction
system.cpu1.op_class::SimdAdd                       0      0.00%     39.32% # Class of executed instruction
system.cpu1.op_class::SimdAddAcc                    0      0.00%     39.32% # Class of executed instruction
system.cpu1.op_class::SimdAlu                   55636      0.00%     39.32% # Class of executed instruction
system.cpu1.op_class::SimdCmp                      30      0.00%     39.32% # Class of executed instruction
system.cpu1.op_class::SimdCvt                     302      0.00%     39.32% # Class of executed instruction
system.cpu1.op_class::SimdMisc                  83499      0.01%     39.33% # Class of executed instruction
system.cpu1.op_class::SimdMult                      0      0.00%     39.33% # Class of executed instruction
system.cpu1.op_class::SimdMultAcc                   0      0.00%     39.33% # Class of executed instruction
system.cpu1.op_class::SimdShift                     0      0.00%     39.33% # Class of executed instruction
system.cpu1.op_class::SimdShiftAcc                  0      0.00%     39.33% # Class of executed instruction
system.cpu1.op_class::SimdDiv                       0      0.00%     39.33% # Class of executed instruction
system.cpu1.op_class::SimdSqrt                      0      0.00%     39.33% # Class of executed instruction
system.cpu1.op_class::SimdFloatAdd          312236415     20.88%     60.21% # Class of executed instruction
system.cpu1.op_class::SimdFloatAlu                  0      0.00%     60.21% # Class of executed instruction
system.cpu1.op_class::SimdFloatCmp            4974922      0.33%     60.54% # Class of executed instruction
system.cpu1.op_class::SimdFloatCvt                 14      0.00%     60.54% # Class of executed instruction
system.cpu1.op_class::SimdFloatDiv            6127744      0.41%     60.95% # Class of executed instruction
system.cpu1.op_class::SimdFloatMisc                 0      0.00%     60.95% # Class of executed instruction
system.cpu1.op_class::SimdFloatMult         158187170     10.58%     71.53% # Class of executed instruction
system.cpu1.op_class::SimdFloatMultAcc              0      0.00%     71.53% # Class of executed instruction
system.cpu1.op_class::SimdFloatSqrt                 2      0.00%     71.53% # Class of executed instruction
system.cpu1.op_class::SimdReduceAdd                 0      0.00%     71.53% # Class of executed instruction
system.cpu1.op_class::SimdReduceAlu                 0      0.00%     71.53% # Class of executed instruction
system.cpu1.op_class::SimdReduceCmp                 0      0.00%     71.53% # Class of executed instruction
system.cpu1.op_class::SimdFloatReduceAdd            0      0.00%     71.53% # Class of executed instruction
system.cpu1.op_class::SimdFloatReduceCmp            0      0.00%     71.53% # Class of executed instruction
system.cpu1.op_class::SimdAes                       0      0.00%     71.53% # Class of executed instruction
system.cpu1.op_class::SimdAesMix                    0      0.00%     71.53% # Class of executed instruction
system.cpu1.op_class::SimdSha1Hash                  0      0.00%     71.53% # Class of executed instruction
system.cpu1.op_class::SimdSha1Hash2                 0      0.00%     71.53% # Class of executed instruction
system.cpu1.op_class::SimdSha256Hash                0      0.00%     71.53% # Class of executed instruction
system.cpu1.op_class::SimdSha256Hash2               0      0.00%     71.53% # Class of executed instruction
system.cpu1.op_class::SimdShaSigma2                 0      0.00%     71.53% # Class of executed instruction
system.cpu1.op_class::SimdShaSigma3                 0      0.00%     71.53% # Class of executed instruction
system.cpu1.op_class::SimdPredAlu                   0      0.00%     71.53% # Class of executed instruction
system.cpu1.op_class::MemRead                22110355      1.48%     73.00% # Class of executed instruction
system.cpu1.op_class::MemWrite               13655967      0.91%     73.92% # Class of executed instruction
system.cpu1.op_class::FloatMemRead          225537385     15.08%     89.00% # Class of executed instruction
system.cpu1.op_class::FloatMemWrite         164533411     11.00%    100.00% # Class of executed instruction
system.cpu1.op_class::IprAccess                     0      0.00%    100.00% # Class of executed instruction
system.cpu1.op_class::InstPrefetch                  0      0.00%    100.00% # Class of executed instruction
system.cpu1.op_class::total                1495488858                       # Class of executed instruction
system.cpu1.workload.numSyscalls                  352                       # Number of system calls
system.membus.snoop_filter.hit_multi_requests            0                       # Number of requests hitting in the snoop filter with multiple (>1) holders of the requested data.
system.membus.snoop_filter.hit_multi_snoops            0                       # Number of snoops hitting in the snoop filter with multiple (>1) holders of the requested data.
system.membus.snoop_filter.hit_single_requests     19861513                       # Number of requests hitting in the snoop filter with a single holder of the requested data.
system.membus.snoop_filter.hit_single_snoops            0                       # Number of snoops hitting in the snoop filter with a single holder of the requested data.
system.membus.snoop_filter.tot_requests      39986120                       # Total number of requests made to the snoop filter.
system.membus.snoop_filter.tot_snoops               0                       # Total number of snoops made to the snoop filter.
system.tol2bus.snoop_filter.hit_multi_requests            0                       # Number of requests hitting in the snoop filter with multiple (>1) holders of the requested data.
system.tol2bus.snoop_filter.hit_multi_snoops            0                       # Number of snoops hitting in the snoop filter with multiple (>1) holders of the requested data.
system.tol2bus.snoop_filter.hit_single_requests     90150667                       # Number of requests hitting in the snoop filter with a single holder of the requested data.
system.tol2bus.snoop_filter.hit_single_snoops         1352                       # Number of snoops hitting in the snoop filter with a single holder of the requested data.
system.tol2bus.snoop_filter.tot_requests    180302292                       # Total number of requests made to the snoop filter.
system.tol2bus.snoop_filter.tot_snoops           1352                       # Total number of snoops made to the snoop filter.
system.membus.pwrStateResidencyTicks::UNDEFINED 3739100502654                       # Cumulative time (in ticks) in various power states
system.membus.trans_dist::ReadResp            8495652                       # Transaction distribution
system.membus.trans_dist::WritebackDirty     11734569                       # Transaction distribution
system.membus.trans_dist::CleanEvict          8126944                       # Transaction distribution
system.membus.trans_dist::ReadExReq          11628955                       # Transaction distribution
system.membus.trans_dist::ReadExResp         11628955                       # Transaction distribution
system.membus.trans_dist::ReadSharedReq       8495652                       # Transaction distribution
system.membus.pkt_count_system.l2.mem_side::system.mem_ctrls.port     60110727                       # Packet count per connected master and slave (bytes)
system.membus.pkt_count_system.l2.mem_side::total     60110727                       # Packet count per connected master and slave (bytes)
system.membus.pkt_count::total               60110727                       # Packet count per connected master and slave (bytes)
system.membus.pkt_size_system.l2.mem_side::system.mem_ctrls.port   2038987264                       # Cumulative packet size per connected master and slave (bytes)
system.membus.pkt_size_system.l2.mem_side::total   2038987264                       # Cumulative packet size per connected master and slave (bytes)
system.membus.pkt_size::total              2038987264                       # Cumulative packet size per connected master and slave (bytes)
system.membus.snoops                                0                       # Total snoops (count)
system.membus.snoopTraffic                          0                       # Total snoop traffic (bytes)
system.membus.snoop_fanout::samples          20124607                       # Request fanout histogram
system.membus.snoop_fanout::mean                    0                       # Request fanout histogram
system.membus.snoop_fanout::stdev                   0                       # Request fanout histogram
system.membus.snoop_fanout::underflows              0      0.00%      0.00% # Request fanout histogram
system.membus.snoop_fanout::0                20124607    100.00%    100.00% # Request fanout histogram
system.membus.snoop_fanout::1                       0      0.00%    100.00% # Request fanout histogram
system.membus.snoop_fanout::overflows               0      0.00%    100.00% # Request fanout histogram
system.membus.snoop_fanout::min_value               0                       # Request fanout histogram
system.membus.snoop_fanout::max_value               0                       # Request fanout histogram
system.membus.snoop_fanout::total            20124607                       # Request fanout histogram
system.membus.reqLayer4.occupancy        113204894690                       # Layer occupancy (ticks)
system.membus.reqLayer4.utilization               3.0                       # Layer utilization (%)
system.membus.respLayer1.occupancy       107784213550                       # Layer occupancy (ticks)
system.membus.respLayer1.utilization              2.9                       # Layer utilization (%)
system.voltage_domain.voltage                       1                       # Voltage in Volts
system.clk_domain.clock                          1000                       # Clock period in ticks
system.cpu0.numPwrStateTransitions                  1                       # Number of power state transitions
system.cpu0.pwrStateResidencyTicks::ON   3739100502654                       # Cumulative time (in ticks) in various power states
system.cpu0.icache.pwrStateResidencyTicks::UNDEFINED 3739100502654                       # Cumulative time (in ticks) in various power states
system.cpu0.icache.demand_hits::.cpu0.inst     38901902                       # number of demand (read+write) hits
system.cpu0.icache.demand_hits::total        38901902                       # number of demand (read+write) hits
system.cpu0.icache.overall_hits::.cpu0.inst     38901902                       # number of overall hits
system.cpu0.icache.overall_hits::total       38901902                       # number of overall hits
system.cpu0.icache.demand_misses::.cpu0.inst          449                       # number of demand (read+write) misses
system.cpu0.icache.demand_misses::total           449                       # number of demand (read+write) misses
system.cpu0.icache.overall_misses::.cpu0.inst          449                       # number of overall misses
system.cpu0.icache.overall_misses::total          449                       # number of overall misses
system.cpu0.icache.demand_miss_latency::.cpu0.inst     39064563                       # number of demand (read+write) miss cycles
system.cpu0.icache.demand_miss_latency::total     39064563                       # number of demand (read+write) miss cycles
system.cpu0.icache.overall_miss_latency::.cpu0.inst     39064563                       # number of overall miss cycles
system.cpu0.icache.overall_miss_latency::total     39064563                       # number of overall miss cycles
system.cpu0.icache.demand_accesses::.cpu0.inst     38902351                       # number of demand (read+write) accesses
system.cpu0.icache.demand_accesses::total     38902351                       # number of demand (read+write) accesses
system.cpu0.icache.overall_accesses::.cpu0.inst     38902351                       # number of overall (read+write) accesses
system.cpu0.icache.overall_accesses::total     38902351                       # number of overall (read+write) accesses
system.cpu0.icache.demand_miss_rate::.cpu0.inst     0.000012                       # miss rate for demand accesses
system.cpu0.icache.demand_miss_rate::total     0.000012                       # miss rate for demand accesses
system.cpu0.icache.overall_miss_rate::.cpu0.inst     0.000012                       # miss rate for overall accesses
system.cpu0.icache.overall_miss_rate::total     0.000012                       # miss rate for overall accesses
system.cpu0.icache.demand_avg_miss_latency::.cpu0.inst 87003.481069                       # average overall miss latency
system.cpu0.icache.demand_avg_miss_latency::total 87003.481069                       # average overall miss latency
system.cpu0.icache.overall_avg_miss_latency::.cpu0.inst 87003.481069                       # average overall miss latency
system.cpu0.icache.overall_avg_miss_latency::total 87003.481069                       # average overall miss latency
system.cpu0.icache.blocked_cycles::no_mshrs            0                       # number of cycles access was blocked
system.cpu0.icache.blocked_cycles::no_targets            0                       # number of cycles access was blocked
system.cpu0.icache.blocked::no_mshrs                0                       # number of cycles access was blocked
system.cpu0.icache.blocked::no_targets              0                       # number of cycles access was blocked
system.cpu0.icache.avg_blocked_cycles::no_mshrs          nan                       # average number of cycles each access was blocked
system.cpu0.icache.avg_blocked_cycles::no_targets          nan                       # average number of cycles each access was blocked
system.cpu0.icache.writebacks::.writebacks           18                       # number of writebacks
system.cpu0.icache.writebacks::total               18                       # number of writebacks
system.cpu0.icache.demand_mshr_misses::.cpu0.inst          449                       # number of demand (read+write) MSHR misses
system.cpu0.icache.demand_mshr_misses::total          449                       # number of demand (read+write) MSHR misses
system.cpu0.icache.overall_mshr_misses::.cpu0.inst          449                       # number of overall MSHR misses
system.cpu0.icache.overall_mshr_misses::total          449                       # number of overall MSHR misses
system.cpu0.icache.demand_mshr_miss_latency::.cpu0.inst     38765529                       # number of demand (read+write) MSHR miss cycles
system.cpu0.icache.demand_mshr_miss_latency::total     38765529                       # number of demand (read+write) MSHR miss cycles
system.cpu0.icache.overall_mshr_miss_latency::.cpu0.inst     38765529                       # number of overall MSHR miss cycles
system.cpu0.icache.overall_mshr_miss_latency::total     38765529                       # number of overall MSHR miss cycles
system.cpu0.icache.demand_mshr_miss_rate::.cpu0.inst     0.000012                       # mshr miss rate for demand accesses
system.cpu0.icache.demand_mshr_miss_rate::total     0.000012                       # mshr miss rate for demand accesses
system.cpu0.icache.overall_mshr_miss_rate::.cpu0.inst     0.000012                       # mshr miss rate for overall accesses
system.cpu0.icache.overall_mshr_miss_rate::total     0.000012                       # mshr miss rate for overall accesses
system.cpu0.icache.demand_avg_mshr_miss_latency::.cpu0.inst 86337.481069                       # average overall mshr miss latency
system.cpu0.icache.demand_avg_mshr_miss_latency::total 86337.481069                       # average overall mshr miss latency
system.cpu0.icache.overall_avg_mshr_miss_latency::.cpu0.inst 86337.481069                       # average overall mshr miss latency
system.cpu0.icache.overall_avg_mshr_miss_latency::total 86337.481069                       # average overall mshr miss latency
system.cpu0.icache.replacements                    18                       # number of replacements
system.cpu0.icache.ReadReq_hits::.cpu0.inst     38901902                       # number of ReadReq hits
system.cpu0.icache.ReadReq_hits::total       38901902                       # number of ReadReq hits
system.cpu0.icache.ReadReq_misses::.cpu0.inst          449                       # number of ReadReq misses
system.cpu0.icache.ReadReq_misses::total          449                       # number of ReadReq misses
system.cpu0.icache.ReadReq_miss_latency::.cpu0.inst     39064563                       # number of ReadReq miss cycles
system.cpu0.icache.ReadReq_miss_latency::total     39064563                       # number of ReadReq miss cycles
system.cpu0.icache.ReadReq_accesses::.cpu0.inst     38902351                       # number of ReadReq accesses(hits+misses)
system.cpu0.icache.ReadReq_accesses::total     38902351                       # number of ReadReq accesses(hits+misses)
system.cpu0.icache.ReadReq_miss_rate::.cpu0.inst     0.000012                       # miss rate for ReadReq accesses
system.cpu0.icache.ReadReq_miss_rate::total     0.000012                       # miss rate for ReadReq accesses
system.cpu0.icache.ReadReq_avg_miss_latency::.cpu0.inst 87003.481069                       # average ReadReq miss latency
system.cpu0.icache.ReadReq_avg_miss_latency::total 87003.481069                       # average ReadReq miss latency
system.cpu0.icache.ReadReq_mshr_misses::.cpu0.inst          449                       # number of ReadReq MSHR misses
system.cpu0.icache.ReadReq_mshr_misses::total          449                       # number of ReadReq MSHR misses
system.cpu0.icache.ReadReq_mshr_miss_latency::.cpu0.inst     38765529                       # number of ReadReq MSHR miss cycles
system.cpu0.icache.ReadReq_mshr_miss_latency::total     38765529                       # number of ReadReq MSHR miss cycles
system.cpu0.icache.ReadReq_mshr_miss_rate::.cpu0.inst     0.000012                       # mshr miss rate for ReadReq accesses
system.cpu0.icache.ReadReq_mshr_miss_rate::total     0.000012                       # mshr miss rate for ReadReq accesses
system.cpu0.icache.ReadReq_avg_mshr_miss_latency::.cpu0.inst 86337.481069                       # average ReadReq mshr miss latency
system.cpu0.icache.ReadReq_avg_mshr_miss_latency::total 86337.481069                       # average ReadReq mshr miss latency
system.cpu0.icache.tags.pwrStateResidencyTicks::UNDEFINED 3739100502654                       # Cumulative time (in ticks) in various power states
system.cpu0.icache.tags.tagsinuse          429.493164                       # Cycle average of tags in use
system.cpu0.icache.tags.total_refs           38902351                       # Total number of references to valid blocks.
system.cpu0.icache.tags.sampled_refs              449                       # Sample count of references to valid blocks.
system.cpu0.icache.tags.avg_refs         86642.207127                       # Average number of references to valid blocks.
system.cpu0.icache.tags.warmup_cycle            83250                       # Cycle when the warmup percentage was hit.
system.cpu0.icache.tags.occ_blocks::.cpu0.inst   429.493164                       # Average occupied blocks per requestor
system.cpu0.icache.tags.occ_percent::.cpu0.inst     0.838854                       # Average percentage of cache occupancy
system.cpu0.icache.tags.occ_percent::total     0.838854                       # Average percentage of cache occupancy
system.cpu0.icache.tags.occ_task_id_blocks::1024          431                       # Occupied blocks per task id
system.cpu0.icache.tags.age_task_id_blocks_1024::4          431                       # Occupied blocks per task id
system.cpu0.icache.tags.occ_task_id_percent::1024     0.841797                       # Percentage of cache occupancy per task id
system.cpu0.icache.tags.tag_accesses        311219257                       # Number of tag accesses
system.cpu0.icache.tags.data_accesses       311219257                       # Number of data accesses
system.cpu0.icache.tags.repl_invalid                0                       # Number of initial replacements
system.cpu0.icache.tags.repl_valid_tag              0                       # Number of local replacements
system.cpu0.icache.tags.repl_valid_data             0                       # Number of global replacements
system.cpu0.dtb.walker.pwrStateResidencyTicks::UNDEFINED 3739100502654                       # Cumulative time (in ticks) in various power states
system.cpu0.interrupts.clk_domain.clock          5328                       # Clock period in ticks
system.cpu0.itb_walker_cache.pwrStateResidencyTicks::UNDEFINED 3739100502654                       # Cumulative time (in ticks) in various power states
system.cpu0.itb_walker_cache.blocked_cycles::no_mshrs            0                       # number of cycles access was blocked
system.cpu0.itb_walker_cache.blocked_cycles::no_targets            0                       # number of cycles access was blocked
system.cpu0.itb_walker_cache.blocked::no_mshrs            0                       # number of cycles access was blocked
system.cpu0.itb_walker_cache.blocked::no_targets            0                       # number of cycles access was blocked
system.cpu0.itb_walker_cache.avg_blocked_cycles::no_mshrs          nan                       # average number of cycles each access was blocked
system.cpu0.itb_walker_cache.avg_blocked_cycles::no_targets          nan                       # average number of cycles each access was blocked
system.cpu0.itb_walker_cache.replacements            0                       # number of replacements
system.cpu0.itb_walker_cache.tags.pwrStateResidencyTicks::UNDEFINED 3739100502654                       # Cumulative time (in ticks) in various power states
system.cpu0.itb_walker_cache.tags.tagsinuse            0                       # Cycle average of tags in use
system.cpu0.itb_walker_cache.tags.total_refs            0                       # Total number of references to valid blocks.
system.cpu0.itb_walker_cache.tags.sampled_refs            0                       # Sample count of references to valid blocks.
system.cpu0.itb_walker_cache.tags.avg_refs          nan                       # Average number of references to valid blocks.
system.cpu0.itb_walker_cache.tags.warmup_cycle            0                       # Cycle when the warmup percentage was hit.
system.cpu0.itb_walker_cache.tags.tag_accesses            0                       # Number of tag accesses
system.cpu0.itb_walker_cache.tags.data_accesses            0                       # Number of data accesses
system.cpu0.itb_walker_cache.tags.repl_invalid            0                       # Number of initial replacements
system.cpu0.itb_walker_cache.tags.repl_valid_tag            0                       # Number of local replacements
system.cpu0.itb_walker_cache.tags.repl_valid_data            0                       # Number of global replacements
system.cpu0.itb.walker.pwrStateResidencyTicks::UNDEFINED 3739100502654                       # Cumulative time (in ticks) in various power states
system.cpu0.dtb_walker_cache.pwrStateResidencyTicks::UNDEFINED 3739100502654                       # Cumulative time (in ticks) in various power states
system.cpu0.dtb_walker_cache.blocked_cycles::no_mshrs            0                       # number of cycles access was blocked
system.cpu0.dtb_walker_cache.blocked_cycles::no_targets            0                       # number of cycles access was blocked
system.cpu0.dtb_walker_cache.blocked::no_mshrs            0                       # number of cycles access was blocked
system.cpu0.dtb_walker_cache.blocked::no_targets            0                       # number of cycles access was blocked
system.cpu0.dtb_walker_cache.avg_blocked_cycles::no_mshrs          nan                       # average number of cycles each access was blocked
system.cpu0.dtb_walker_cache.avg_blocked_cycles::no_targets          nan                       # average number of cycles each access was blocked
system.cpu0.dtb_walker_cache.replacements            0                       # number of replacements
system.cpu0.dtb_walker_cache.tags.pwrStateResidencyTicks::UNDEFINED 3739100502654                       # Cumulative time (in ticks) in various power states
system.cpu0.dtb_walker_cache.tags.tagsinuse            0                       # Cycle average of tags in use
system.cpu0.dtb_walker_cache.tags.total_refs            0                       # Total number of references to valid blocks.
system.cpu0.dtb_walker_cache.tags.sampled_refs            0                       # Sample count of references to valid blocks.
system.cpu0.dtb_walker_cache.tags.avg_refs          nan                       # Average number of references to valid blocks.
system.cpu0.dtb_walker_cache.tags.warmup_cycle            0                       # Cycle when the warmup percentage was hit.
system.cpu0.dtb_walker_cache.tags.tag_accesses            0                       # Number of tag accesses
system.cpu0.dtb_walker_cache.tags.data_accesses            0                       # Number of data accesses
system.cpu0.dtb_walker_cache.tags.repl_invalid            0                       # Number of initial replacements
system.cpu0.dtb_walker_cache.tags.repl_valid_tag            0                       # Number of local replacements
system.cpu0.dtb_walker_cache.tags.repl_valid_data            0                       # Number of global replacements
system.cpu0.dcache.pwrStateResidencyTicks::UNDEFINED 3739100502654                       # Cumulative time (in ticks) in various power states
system.cpu0.dcache.demand_hits::.cpu0.data     16322542                       # number of demand (read+write) hits
system.cpu0.dcache.demand_hits::total        16322542                       # number of demand (read+write) hits
system.cpu0.dcache.overall_hits::.cpu0.data     16322542                       # number of overall hits
system.cpu0.dcache.overall_hits::total       16322542                       # number of overall hits
system.cpu0.dcache.demand_misses::.cpu0.data       347916                       # number of demand (read+write) misses
system.cpu0.dcache.demand_misses::total        347916                       # number of demand (read+write) misses
system.cpu0.dcache.overall_misses::.cpu0.data       347916                       # number of overall misses
system.cpu0.dcache.overall_misses::total       347916                       # number of overall misses
system.cpu0.dcache.demand_miss_latency::.cpu0.data  30946157199                       # number of demand (read+write) miss cycles
system.cpu0.dcache.demand_miss_latency::total  30946157199                       # number of demand (read+write) miss cycles
system.cpu0.dcache.overall_miss_latency::.cpu0.data  30946157199                       # number of overall miss cycles
system.cpu0.dcache.overall_miss_latency::total  30946157199                       # number of overall miss cycles
system.cpu0.dcache.demand_accesses::.cpu0.data     16670458                       # number of demand (read+write) accesses
system.cpu0.dcache.demand_accesses::total     16670458                       # number of demand (read+write) accesses
system.cpu0.dcache.overall_accesses::.cpu0.data     16670458                       # number of overall (read+write) accesses
system.cpu0.dcache.overall_accesses::total     16670458                       # number of overall (read+write) accesses
system.cpu0.dcache.demand_miss_rate::.cpu0.data     0.020870                       # miss rate for demand accesses
system.cpu0.dcache.demand_miss_rate::total     0.020870                       # miss rate for demand accesses
system.cpu0.dcache.overall_miss_rate::.cpu0.data     0.020870                       # miss rate for overall accesses
system.cpu0.dcache.overall_miss_rate::total     0.020870                       # miss rate for overall accesses
system.cpu0.dcache.demand_avg_miss_latency::.cpu0.data 88947.209094                       # average overall miss latency
system.cpu0.dcache.demand_avg_miss_latency::total 88947.209094                       # average overall miss latency
system.cpu0.dcache.overall_avg_miss_latency::.cpu0.data 88947.209094                       # average overall miss latency
system.cpu0.dcache.overall_avg_miss_latency::total 88947.209094                       # average overall miss latency
system.cpu0.dcache.blocked_cycles::no_mshrs            0                       # number of cycles access was blocked
system.cpu0.dcache.blocked_cycles::no_targets            0                       # number of cycles access was blocked
system.cpu0.dcache.blocked::no_mshrs                0                       # number of cycles access was blocked
system.cpu0.dcache.blocked::no_targets              0                       # number of cycles access was blocked
system.cpu0.dcache.avg_blocked_cycles::no_mshrs          nan                       # average number of cycles each access was blocked
system.cpu0.dcache.avg_blocked_cycles::no_targets          nan                       # average number of cycles each access was blocked
system.cpu0.dcache.writebacks::.writebacks          514                       # number of writebacks
system.cpu0.dcache.writebacks::total              514                       # number of writebacks
system.cpu0.dcache.demand_mshr_misses::.cpu0.data       347916                       # number of demand (read+write) MSHR misses
system.cpu0.dcache.demand_mshr_misses::total       347916                       # number of demand (read+write) MSHR misses
system.cpu0.dcache.overall_mshr_misses::.cpu0.data       347916                       # number of overall MSHR misses
system.cpu0.dcache.overall_mshr_misses::total       347916                       # number of overall MSHR misses
system.cpu0.dcache.demand_mshr_miss_latency::.cpu0.data  30714445143                       # number of demand (read+write) MSHR miss cycles
system.cpu0.dcache.demand_mshr_miss_latency::total  30714445143                       # number of demand (read+write) MSHR miss cycles
system.cpu0.dcache.overall_mshr_miss_latency::.cpu0.data  30714445143                       # number of overall MSHR miss cycles
system.cpu0.dcache.overall_mshr_miss_latency::total  30714445143                       # number of overall MSHR miss cycles
system.cpu0.dcache.demand_mshr_miss_rate::.cpu0.data     0.020870                       # mshr miss rate for demand accesses
system.cpu0.dcache.demand_mshr_miss_rate::total     0.020870                       # mshr miss rate for demand accesses
system.cpu0.dcache.overall_mshr_miss_rate::.cpu0.data     0.020870                       # mshr miss rate for overall accesses
system.cpu0.dcache.overall_mshr_miss_rate::total     0.020870                       # mshr miss rate for overall accesses
system.cpu0.dcache.demand_avg_mshr_miss_latency::.cpu0.data 88281.209094                       # average overall mshr miss latency
system.cpu0.dcache.demand_avg_mshr_miss_latency::total 88281.209094                       # average overall mshr miss latency
system.cpu0.dcache.overall_avg_mshr_miss_latency::.cpu0.data 88281.209094                       # average overall mshr miss latency
system.cpu0.dcache.overall_avg_mshr_miss_latency::total 88281.209094                       # average overall mshr miss latency
system.cpu0.dcache.replacements                347908                       # number of replacements
system.cpu0.dcache.ReadReq_hits::.cpu0.data     10765403                       # number of ReadReq hits
system.cpu0.dcache.ReadReq_hits::total       10765403                       # number of ReadReq hits
system.cpu0.dcache.ReadReq_misses::.cpu0.data       347660                       # number of ReadReq misses
system.cpu0.dcache.ReadReq_misses::total       347660                       # number of ReadReq misses
system.cpu0.dcache.ReadReq_miss_latency::.cpu0.data  30934395972                       # number of ReadReq miss cycles
system.cpu0.dcache.ReadReq_miss_latency::total  30934395972                       # number of ReadReq miss cycles
system.cpu0.dcache.ReadReq_accesses::.cpu0.data     11113063                       # number of ReadReq accesses(hits+misses)
system.cpu0.dcache.ReadReq_accesses::total     11113063                       # number of ReadReq accesses(hits+misses)
system.cpu0.dcache.ReadReq_miss_rate::.cpu0.data     0.031284                       # miss rate for ReadReq accesses
system.cpu0.dcache.ReadReq_miss_rate::total     0.031284                       # miss rate for ReadReq accesses
system.cpu0.dcache.ReadReq_avg_miss_latency::.cpu0.data 88978.875833                       # average ReadReq miss latency
system.cpu0.dcache.ReadReq_avg_miss_latency::total 88978.875833                       # average ReadReq miss latency
system.cpu0.dcache.ReadReq_mshr_misses::.cpu0.data       347660                       # number of ReadReq MSHR misses
system.cpu0.dcache.ReadReq_mshr_misses::total       347660                       # number of ReadReq MSHR misses
system.cpu0.dcache.ReadReq_mshr_miss_latency::.cpu0.data  30702854412                       # number of ReadReq MSHR miss cycles
system.cpu0.dcache.ReadReq_mshr_miss_latency::total  30702854412                       # number of ReadReq MSHR miss cycles
system.cpu0.dcache.ReadReq_mshr_miss_rate::.cpu0.data     0.031284                       # mshr miss rate for ReadReq accesses
system.cpu0.dcache.ReadReq_mshr_miss_rate::total     0.031284                       # mshr miss rate for ReadReq accesses
system.cpu0.dcache.ReadReq_avg_mshr_miss_latency::.cpu0.data 88312.875833                       # average ReadReq mshr miss latency
system.cpu0.dcache.ReadReq_avg_mshr_miss_latency::total 88312.875833                       # average ReadReq mshr miss latency
system.cpu0.dcache.WriteReq_hits::.cpu0.data      5557139                       # number of WriteReq hits
system.cpu0.dcache.WriteReq_hits::total       5557139                       # number of WriteReq hits
system.cpu0.dcache.WriteReq_misses::.cpu0.data          256                       # number of WriteReq misses
system.cpu0.dcache.WriteReq_misses::total          256                       # number of WriteReq misses
system.cpu0.dcache.WriteReq_miss_latency::.cpu0.data     11761227                       # number of WriteReq miss cycles
system.cpu0.dcache.WriteReq_miss_latency::total     11761227                       # number of WriteReq miss cycles
system.cpu0.dcache.WriteReq_accesses::.cpu0.data      5557395                       # number of WriteReq accesses(hits+misses)
system.cpu0.dcache.WriteReq_accesses::total      5557395                       # number of WriteReq accesses(hits+misses)
system.cpu0.dcache.WriteReq_miss_rate::.cpu0.data     0.000046                       # miss rate for WriteReq accesses
system.cpu0.dcache.WriteReq_miss_rate::total     0.000046                       # miss rate for WriteReq accesses
system.cpu0.dcache.WriteReq_avg_miss_latency::.cpu0.data 45942.292969                       # average WriteReq miss latency
system.cpu0.dcache.WriteReq_avg_miss_latency::total 45942.292969                       # average WriteReq miss latency
system.cpu0.dcache.WriteReq_mshr_misses::.cpu0.data          256                       # number of WriteReq MSHR misses
system.cpu0.dcache.WriteReq_mshr_misses::total          256                       # number of WriteReq MSHR misses
system.cpu0.dcache.WriteReq_mshr_miss_latency::.cpu0.data     11590731                       # number of WriteReq MSHR miss cycles
system.cpu0.dcache.WriteReq_mshr_miss_latency::total     11590731                       # number of WriteReq MSHR miss cycles
system.cpu0.dcache.WriteReq_mshr_miss_rate::.cpu0.data     0.000046                       # mshr miss rate for WriteReq accesses
system.cpu0.dcache.WriteReq_mshr_miss_rate::total     0.000046                       # mshr miss rate for WriteReq accesses
system.cpu0.dcache.WriteReq_avg_mshr_miss_latency::.cpu0.data 45276.292969                       # average WriteReq mshr miss latency
system.cpu0.dcache.WriteReq_avg_mshr_miss_latency::total 45276.292969                       # average WriteReq mshr miss latency
system.cpu0.dcache.tags.pwrStateResidencyTicks::UNDEFINED 3739100502654                       # Cumulative time (in ticks) in various power states
system.cpu0.dcache.tags.tagsinuse            7.999998                       # Cycle average of tags in use
system.cpu0.dcache.tags.total_refs           16670458                       # Total number of references to valid blocks.
system.cpu0.dcache.tags.sampled_refs           347916                       # Sample count of references to valid blocks.
system.cpu0.dcache.tags.avg_refs            47.915181                       # Average number of references to valid blocks.
system.cpu0.dcache.tags.warmup_cycle           166167                       # Cycle when the warmup percentage was hit.
system.cpu0.dcache.tags.occ_blocks::.cpu0.data     7.999998                       # Average occupied blocks per requestor
system.cpu0.dcache.tags.occ_percent::.cpu0.data     1.000000                       # Average percentage of cache occupancy
system.cpu0.dcache.tags.occ_percent::total     1.000000                       # Average percentage of cache occupancy
system.cpu0.dcache.tags.occ_task_id_blocks::1024            8                       # Occupied blocks per task id
system.cpu0.dcache.tags.age_task_id_blocks_1024::4            8                       # Occupied blocks per task id
system.cpu0.dcache.tags.occ_task_id_percent::1024            1                       # Percentage of cache occupancy per task id
system.cpu0.dcache.tags.tag_accesses        133711580                       # Number of tag accesses
system.cpu0.dcache.tags.data_accesses       133711580                       # Number of data accesses
system.cpu0.dcache.tags.repl_invalid                0                       # Number of initial replacements
system.cpu0.dcache.tags.repl_valid_tag              0                       # Number of local replacements
system.cpu0.dcache.tags.repl_valid_data             0                       # Number of global replacements
system.cpu1.numPwrStateTransitions                  1                       # Number of power state transitions
system.cpu1.pwrStateResidencyTicks::ON   3739100502654                       # Cumulative time (in ticks) in various power states
system.cpu1.icache.pwrStateResidencyTicks::UNDEFINED 3739100502654                       # Cumulative time (in ticks) in various power states
system.cpu1.icache.demand_hits::.cpu1.inst   1498540007                       # number of demand (read+write) hits
system.cpu1.icache.demand_hits::total      1498540007                       # number of demand (read+write) hits
system.cpu1.icache.overall_hits::.cpu1.inst   1498540007                       # number of overall hits
system.cpu1.icache.overall_hits::total     1498540007                       # number of overall hits
system.cpu1.icache.demand_misses::.cpu1.inst          849                       # number of demand (read+write) misses
system.cpu1.icache.demand_misses::total           849                       # number of demand (read+write) misses
system.cpu1.icache.overall_misses::.cpu1.inst          849                       # number of overall misses
system.cpu1.icache.overall_misses::total          849                       # number of overall misses
system.cpu1.icache.demand_miss_latency::.cpu1.inst     71608653                       # number of demand (read+write) miss cycles
system.cpu1.icache.demand_miss_latency::total     71608653                       # number of demand (read+write) miss cycles
system.cpu1.icache.overall_miss_latency::.cpu1.inst     71608653                       # number of overall miss cycles
system.cpu1.icache.overall_miss_latency::total     71608653                       # number of overall miss cycles
system.cpu1.icache.demand_accesses::.cpu1.inst   1498540856                       # number of demand (read+write) accesses
system.cpu1.icache.demand_accesses::total   1498540856                       # number of demand (read+write) accesses
system.cpu1.icache.overall_accesses::.cpu1.inst   1498540856                       # number of overall (read+write) accesses
system.cpu1.icache.overall_accesses::total   1498540856                       # number of overall (read+write) accesses
system.cpu1.icache.demand_miss_rate::.cpu1.inst     0.000001                       # miss rate for demand accesses
system.cpu1.icache.demand_miss_rate::total     0.000001                       # miss rate for demand accesses
system.cpu1.icache.overall_miss_rate::.cpu1.inst     0.000001                       # miss rate for overall accesses
system.cpu1.icache.overall_miss_rate::total     0.000001                       # miss rate for overall accesses
system.cpu1.icache.demand_avg_miss_latency::.cpu1.inst 84344.703180                       # average overall miss latency
system.cpu1.icache.demand_avg_miss_latency::total 84344.703180                       # average overall miss latency
system.cpu1.icache.overall_avg_miss_latency::.cpu1.inst 84344.703180                       # average overall miss latency
system.cpu1.icache.overall_avg_miss_latency::total 84344.703180                       # average overall miss latency
system.cpu1.icache.blocked_cycles::no_mshrs            0                       # number of cycles access was blocked
system.cpu1.icache.blocked_cycles::no_targets            0                       # number of cycles access was blocked
system.cpu1.icache.blocked::no_mshrs                0                       # number of cycles access was blocked
system.cpu1.icache.blocked::no_targets              0                       # number of cycles access was blocked
system.cpu1.icache.avg_blocked_cycles::no_mshrs          nan                       # average number of cycles each access was blocked
system.cpu1.icache.avg_blocked_cycles::no_targets          nan                       # average number of cycles each access was blocked
system.cpu1.icache.writebacks::.writebacks          338                       # number of writebacks
system.cpu1.icache.writebacks::total              338                       # number of writebacks
system.cpu1.icache.demand_mshr_misses::.cpu1.inst          849                       # number of demand (read+write) MSHR misses
system.cpu1.icache.demand_mshr_misses::total          849                       # number of demand (read+write) MSHR misses
system.cpu1.icache.overall_mshr_misses::.cpu1.inst          849                       # number of overall MSHR misses
system.cpu1.icache.overall_mshr_misses::total          849                       # number of overall MSHR misses
system.cpu1.icache.demand_mshr_miss_latency::.cpu1.inst     71043219                       # number of demand (read+write) MSHR miss cycles
system.cpu1.icache.demand_mshr_miss_latency::total     71043219                       # number of demand (read+write) MSHR miss cycles
system.cpu1.icache.overall_mshr_miss_latency::.cpu1.inst     71043219                       # number of overall MSHR miss cycles
system.cpu1.icache.overall_mshr_miss_latency::total     71043219                       # number of overall MSHR miss cycles
system.cpu1.icache.demand_mshr_miss_rate::.cpu1.inst     0.000001                       # mshr miss rate for demand accesses
system.cpu1.icache.demand_mshr_miss_rate::total     0.000001                       # mshr miss rate for demand accesses
system.cpu1.icache.overall_mshr_miss_rate::.cpu1.inst     0.000001                       # mshr miss rate for overall accesses
system.cpu1.icache.overall_mshr_miss_rate::total     0.000001                       # mshr miss rate for overall accesses
system.cpu1.icache.demand_avg_mshr_miss_latency::.cpu1.inst 83678.703180                       # average overall mshr miss latency
system.cpu1.icache.demand_avg_mshr_miss_latency::total 83678.703180                       # average overall mshr miss latency
system.cpu1.icache.overall_avg_mshr_miss_latency::.cpu1.inst 83678.703180                       # average overall mshr miss latency
system.cpu1.icache.overall_avg_mshr_miss_latency::total 83678.703180                       # average overall mshr miss latency
system.cpu1.icache.replacements                   338                       # number of replacements
system.cpu1.icache.ReadReq_hits::.cpu1.inst   1498540007                       # number of ReadReq hits
system.cpu1.icache.ReadReq_hits::total     1498540007                       # number of ReadReq hits
system.cpu1.icache.ReadReq_misses::.cpu1.inst          849                       # number of ReadReq misses
system.cpu1.icache.ReadReq_misses::total          849                       # number of ReadReq misses
system.cpu1.icache.ReadReq_miss_latency::.cpu1.inst     71608653                       # number of ReadReq miss cycles
system.cpu1.icache.ReadReq_miss_latency::total     71608653                       # number of ReadReq miss cycles
system.cpu1.icache.ReadReq_accesses::.cpu1.inst   1498540856                       # number of ReadReq accesses(hits+misses)
system.cpu1.icache.ReadReq_accesses::total   1498540856                       # number of ReadReq accesses(hits+misses)
system.cpu1.icache.ReadReq_miss_rate::.cpu1.inst     0.000001                       # miss rate for ReadReq accesses
system.cpu1.icache.ReadReq_miss_rate::total     0.000001                       # miss rate for ReadReq accesses
system.cpu1.icache.ReadReq_avg_miss_latency::.cpu1.inst 84344.703180                       # average ReadReq miss latency
system.cpu1.icache.ReadReq_avg_miss_latency::total 84344.703180                       # average ReadReq miss latency
system.cpu1.icache.ReadReq_mshr_misses::.cpu1.inst          849                       # number of ReadReq MSHR misses
system.cpu1.icache.ReadReq_mshr_misses::total          849                       # number of ReadReq MSHR misses
system.cpu1.icache.ReadReq_mshr_miss_latency::.cpu1.inst     71043219                       # number of ReadReq MSHR miss cycles
system.cpu1.icache.ReadReq_mshr_miss_latency::total     71043219                       # number of ReadReq MSHR miss cycles
system.cpu1.icache.ReadReq_mshr_miss_rate::.cpu1.inst     0.000001                       # mshr miss rate for ReadReq accesses
system.cpu1.icache.ReadReq_mshr_miss_rate::total     0.000001                       # mshr miss rate for ReadReq accesses
system.cpu1.icache.ReadReq_avg_mshr_miss_latency::.cpu1.inst 83678.703180                       # average ReadReq mshr miss latency
system.cpu1.icache.ReadReq_avg_mshr_miss_latency::total 83678.703180                       # average ReadReq mshr miss latency
system.cpu1.icache.tags.pwrStateResidencyTicks::UNDEFINED 3739100502654                       # Cumulative time (in ticks) in various power states
system.cpu1.icache.tags.tagsinuse          505.497601                       # Cycle average of tags in use
system.cpu1.icache.tags.total_refs         1498540856                       # Total number of references to valid blocks.
system.cpu1.icache.tags.sampled_refs              849                       # Sample count of references to valid blocks.
system.cpu1.icache.tags.avg_refs         1765065.790342                       # Average number of references to valid blocks.
system.cpu1.icache.tags.warmup_cycle            88245                       # Cycle when the warmup percentage was hit.
system.cpu1.icache.tags.occ_blocks::.cpu1.inst   505.497601                       # Average occupied blocks per requestor
system.cpu1.icache.tags.occ_percent::.cpu1.inst     0.987300                       # Average percentage of cache occupancy
system.cpu1.icache.tags.occ_percent::total     0.987300                       # Average percentage of cache occupancy
system.cpu1.icache.tags.occ_task_id_blocks::1024          511                       # Occupied blocks per task id
system.cpu1.icache.tags.age_task_id_blocks_1024::4          511                       # Occupied blocks per task id
system.cpu1.icache.tags.occ_task_id_percent::1024     0.998047                       # Percentage of cache occupancy per task id
system.cpu1.icache.tags.tag_accesses      11988327697                       # Number of tag accesses
system.cpu1.icache.tags.data_accesses     11988327697                       # Number of data accesses
system.cpu1.icache.tags.repl_invalid                0                       # Number of initial replacements
system.cpu1.icache.tags.repl_valid_tag              0                       # Number of local replacements
system.cpu1.icache.tags.repl_valid_data             0                       # Number of global replacements
system.cpu1.dtb.walker.pwrStateResidencyTicks::UNDEFINED 3739100502654                       # Cumulative time (in ticks) in various power states
system.cpu1.interrupts.clk_domain.clock          5328                       # Clock period in ticks
system.cpu1.itb_walker_cache.pwrStateResidencyTicks::UNDEFINED 3739100502654                       # Cumulative time (in ticks) in various power states
system.cpu1.itb_walker_cache.blocked_cycles::no_mshrs            0                       # number of cycles access was blocked
system.cpu1.itb_walker_cache.blocked_cycles::no_targets            0                       # number of cycles access was blocked
system.cpu1.itb_walker_cache.blocked::no_mshrs            0                       # number of cycles access was blocked
system.cpu1.itb_walker_cache.blocked::no_targets            0                       # number of cycles access was blocked
system.cpu1.itb_walker_cache.avg_blocked_cycles::no_mshrs          nan                       # average number of cycles each access was blocked
system.cpu1.itb_walker_cache.avg_blocked_cycles::no_targets          nan                       # average number of cycles each access was blocked
system.cpu1.itb_walker_cache.replacements            0                       # number of replacements
system.cpu1.itb_walker_cache.tags.pwrStateResidencyTicks::UNDEFINED 3739100502654                       # Cumulative time (in ticks) in various power states
system.cpu1.itb_walker_cache.tags.tagsinuse            0                       # Cycle average of tags in use
system.cpu1.itb_walker_cache.tags.total_refs            0                       # Total number of references to valid blocks.
system.cpu1.itb_walker_cache.tags.sampled_refs            0                       # Sample count of references to valid blocks.
system.cpu1.itb_walker_cache.tags.avg_refs          nan                       # Average number of references to valid blocks.
system.cpu1.itb_walker_cache.tags.warmup_cycle            0                       # Cycle when the warmup percentage was hit.
system.cpu1.itb_walker_cache.tags.tag_accesses            0                       # Number of tag accesses
system.cpu1.itb_walker_cache.tags.data_accesses            0                       # Number of data accesses
system.cpu1.itb_walker_cache.tags.repl_invalid            0                       # Number of initial replacements
system.cpu1.itb_walker_cache.tags.repl_valid_tag            0                       # Number of local replacements
system.cpu1.itb_walker_cache.tags.repl_valid_data            0                       # Number of global replacements
system.cpu1.itb.walker.pwrStateResidencyTicks::UNDEFINED 3739100502654                       # Cumulative time (in ticks) in various power states
system.cpu1.dtb_walker_cache.pwrStateResidencyTicks::UNDEFINED 3739100502654                       # Cumulative time (in ticks) in various power states
system.cpu1.dtb_walker_cache.blocked_cycles::no_mshrs            0                       # number of cycles access was blocked
system.cpu1.dtb_walker_cache.blocked_cycles::no_targets            0                       # number of cycles access was blocked
system.cpu1.dtb_walker_cache.blocked::no_mshrs            0                       # number of cycles access was blocked
system.cpu1.dtb_walker_cache.blocked::no_targets            0                       # number of cycles access was blocked
system.cpu1.dtb_walker_cache.avg_blocked_cycles::no_mshrs          nan                       # average number of cycles each access was blocked
system.cpu1.dtb_walker_cache.avg_blocked_cycles::no_targets          nan                       # average number of cycles each access was blocked
system.cpu1.dtb_walker_cache.replacements            0                       # number of replacements
system.cpu1.dtb_walker_cache.tags.pwrStateResidencyTicks::UNDEFINED 3739100502654                       # Cumulative time (in ticks) in various power states
system.cpu1.dtb_walker_cache.tags.tagsinuse            0                       # Cycle average of tags in use
system.cpu1.dtb_walker_cache.tags.total_refs            0                       # Total number of references to valid blocks.
system.cpu1.dtb_walker_cache.tags.sampled_refs            0                       # Sample count of references to valid blocks.
system.cpu1.dtb_walker_cache.tags.avg_refs          nan                       # Average number of references to valid blocks.
system.cpu1.dtb_walker_cache.tags.warmup_cycle            0                       # Cycle when the warmup percentage was hit.
system.cpu1.dtb_walker_cache.tags.tag_accesses            0                       # Number of tag accesses
system.cpu1.dtb_walker_cache.tags.data_accesses            0                       # Number of data accesses
system.cpu1.dtb_walker_cache.tags.repl_invalid            0                       # Number of initial replacements
system.cpu1.dtb_walker_cache.tags.repl_valid_tag            0                       # Number of local replacements
system.cpu1.dtb_walker_cache.tags.repl_valid_data            0                       # Number of global replacements
system.cpu1.dcache.pwrStateResidencyTicks::UNDEFINED 3739100502654                       # Cumulative time (in ticks) in various power states
system.cpu1.dcache.demand_hits::.cpu1.data    336034732                       # number of demand (read+write) hits
system.cpu1.dcache.demand_hits::total       336034732                       # number of demand (read+write) hits
system.cpu1.dcache.overall_hits::.cpu1.data    336034732                       # number of overall hits
system.cpu1.dcache.overall_hits::total      336034732                       # number of overall hits
system.cpu1.dcache.demand_misses::.cpu1.data     89802411                       # number of demand (read+write) misses
system.cpu1.dcache.demand_misses::total      89802411                       # number of demand (read+write) misses
system.cpu1.dcache.overall_misses::.cpu1.data     89802411                       # number of overall misses
system.cpu1.dcache.overall_misses::total     89802411                       # number of overall misses
system.cpu1.dcache.demand_miss_latency::.cpu1.data 2517202194417                       # number of demand (read+write) miss cycles
system.cpu1.dcache.demand_miss_latency::total 2517202194417                       # number of demand (read+write) miss cycles
system.cpu1.dcache.overall_miss_latency::.cpu1.data 2517202194417                       # number of overall miss cycles
system.cpu1.dcache.overall_miss_latency::total 2517202194417                       # number of overall miss cycles
system.cpu1.dcache.demand_accesses::.cpu1.data    425837143                       # number of demand (read+write) accesses
system.cpu1.dcache.demand_accesses::total    425837143                       # number of demand (read+write) accesses
system.cpu1.dcache.overall_accesses::.cpu1.data    425837143                       # number of overall (read+write) accesses
system.cpu1.dcache.overall_accesses::total    425837143                       # number of overall (read+write) accesses
system.cpu1.dcache.demand_miss_rate::.cpu1.data     0.210884                       # miss rate for demand accesses
system.cpu1.dcache.demand_miss_rate::total     0.210884                       # miss rate for demand accesses
system.cpu1.dcache.overall_miss_rate::.cpu1.data     0.210884                       # miss rate for overall accesses
system.cpu1.dcache.overall_miss_rate::total     0.210884                       # miss rate for overall accesses
system.cpu1.dcache.demand_avg_miss_latency::.cpu1.data 28030.452261                       # average overall miss latency
system.cpu1.dcache.demand_avg_miss_latency::total 28030.452261                       # average overall miss latency
system.cpu1.dcache.overall_avg_miss_latency::.cpu1.data 28030.452261                       # average overall miss latency
system.cpu1.dcache.overall_avg_miss_latency::total 28030.452261                       # average overall miss latency
system.cpu1.dcache.blocked_cycles::no_mshrs            0                       # number of cycles access was blocked
system.cpu1.dcache.blocked_cycles::no_targets            0                       # number of cycles access was blocked
system.cpu1.dcache.blocked::no_mshrs                0                       # number of cycles access was blocked
system.cpu1.dcache.blocked::no_targets              0                       # number of cycles access was blocked
system.cpu1.dcache.avg_blocked_cycles::no_mshrs          nan                       # average number of cycles each access was blocked
system.cpu1.dcache.avg_blocked_cycles::no_targets          nan                       # average number of cycles each access was blocked
system.cpu1.dcache.writebacks::.writebacks     67454604                       # number of writebacks
system.cpu1.dcache.writebacks::total         67454604                       # number of writebacks
system.cpu1.dcache.demand_mshr_misses::.cpu1.data     89802411                       # number of demand (read+write) MSHR misses
system.cpu1.dcache.demand_mshr_misses::total     89802411                       # number of demand (read+write) MSHR misses
system.cpu1.dcache.overall_mshr_misses::.cpu1.data     89802411                       # number of overall MSHR misses
system.cpu1.dcache.overall_mshr_misses::total     89802411                       # number of overall MSHR misses
system.cpu1.dcache.demand_mshr_miss_latency::.cpu1.data 2457393788691                       # number of demand (read+write) MSHR miss cycles
system.cpu1.dcache.demand_mshr_miss_latency::total 2457393788691                       # number of demand (read+write) MSHR miss cycles
system.cpu1.dcache.overall_mshr_miss_latency::.cpu1.data 2457393788691                       # number of overall MSHR miss cycles
system.cpu1.dcache.overall_mshr_miss_latency::total 2457393788691                       # number of overall MSHR miss cycles
system.cpu1.dcache.demand_mshr_miss_rate::.cpu1.data     0.210884                       # mshr miss rate for demand accesses
system.cpu1.dcache.demand_mshr_miss_rate::total     0.210884                       # mshr miss rate for demand accesses
system.cpu1.dcache.overall_mshr_miss_rate::.cpu1.data     0.210884                       # mshr miss rate for overall accesses
system.cpu1.dcache.overall_mshr_miss_rate::total     0.210884                       # mshr miss rate for overall accesses
system.cpu1.dcache.demand_avg_mshr_miss_latency::.cpu1.data 27364.452261                       # average overall mshr miss latency
system.cpu1.dcache.demand_avg_mshr_miss_latency::total 27364.452261                       # average overall mshr miss latency
system.cpu1.dcache.overall_avg_mshr_miss_latency::.cpu1.data 27364.452261                       # average overall mshr miss latency
system.cpu1.dcache.overall_avg_mshr_miss_latency::total 27364.452261                       # average overall mshr miss latency
system.cpu1.dcache.replacements              89802403                       # number of replacements
system.cpu1.dcache.ReadReq_hits::.cpu1.data    207435670                       # number of ReadReq hits
system.cpu1.dcache.ReadReq_hits::total      207435670                       # number of ReadReq hits
system.cpu1.dcache.ReadReq_misses::.cpu1.data     40212091                       # number of ReadReq misses
system.cpu1.dcache.ReadReq_misses::total     40212091                       # number of ReadReq misses
system.cpu1.dcache.ReadReq_miss_latency::.cpu1.data 1084175685720                       # number of ReadReq miss cycles
system.cpu1.dcache.ReadReq_miss_latency::total 1084175685720                       # number of ReadReq miss cycles
system.cpu1.dcache.ReadReq_accesses::.cpu1.data    247647761                       # number of ReadReq accesses(hits+misses)
system.cpu1.dcache.ReadReq_accesses::total    247647761                       # number of ReadReq accesses(hits+misses)
system.cpu1.dcache.ReadReq_miss_rate::.cpu1.data     0.162376                       # miss rate for ReadReq accesses
system.cpu1.dcache.ReadReq_miss_rate::total     0.162376                       # miss rate for ReadReq accesses
system.cpu1.dcache.ReadReq_avg_miss_latency::.cpu1.data 26961.435199                       # average ReadReq miss latency
system.cpu1.dcache.ReadReq_avg_miss_latency::total 26961.435199                       # average ReadReq miss latency
system.cpu1.dcache.ReadReq_mshr_misses::.cpu1.data     40212091                       # number of ReadReq MSHR misses
system.cpu1.dcache.ReadReq_mshr_misses::total     40212091                       # number of ReadReq MSHR misses
system.cpu1.dcache.ReadReq_mshr_miss_latency::.cpu1.data 1057394433114                       # number of ReadReq MSHR miss cycles
system.cpu1.dcache.ReadReq_mshr_miss_latency::total 1057394433114                       # number of ReadReq MSHR miss cycles
system.cpu1.dcache.ReadReq_mshr_miss_rate::.cpu1.data     0.162376                       # mshr miss rate for ReadReq accesses
system.cpu1.dcache.ReadReq_mshr_miss_rate::total     0.162376                       # mshr miss rate for ReadReq accesses
system.cpu1.dcache.ReadReq_avg_mshr_miss_latency::.cpu1.data 26295.435199                       # average ReadReq mshr miss latency
system.cpu1.dcache.ReadReq_avg_mshr_miss_latency::total 26295.435199                       # average ReadReq mshr miss latency
system.cpu1.dcache.WriteReq_hits::.cpu1.data    128599062                       # number of WriteReq hits
system.cpu1.dcache.WriteReq_hits::total     128599062                       # number of WriteReq hits
system.cpu1.dcache.WriteReq_misses::.cpu1.data     49590320                       # number of WriteReq misses
system.cpu1.dcache.WriteReq_misses::total     49590320                       # number of WriteReq misses
[...]
system.mem_ctrls.wrQLenPdf::116                     0                       # What write queue length does an incoming req see
system.mem_ctrls.wrQLenPdf::117                     0                       # What write queue length does an incoming req see
system.mem_ctrls.wrQLenPdf::118                     0                       # What write queue length does an incoming req see
system.mem_ctrls.wrQLenPdf::119                     0                       # What write queue length does an incoming req see
system.mem_ctrls.wrQLenPdf::120                     0                       # What write queue length does an incoming req see
system.mem_ctrls.wrQLenPdf::121                     0                       # What write queue length does an incoming req see
system.mem_ctrls.wrQLenPdf::122                     0                       # What write queue length does an incoming req see
system.mem_ctrls.wrQLenPdf::123                     0                       # What write queue length does an incoming req see
system.mem_ctrls.wrQLenPdf::124                     0                       # What write queue length does an incoming req see
system.mem_ctrls.wrQLenPdf::125                     0                       # What write queue length does an incoming req see
system.mem_ctrls.wrQLenPdf::126                     0                       # What write queue length does an incoming req see
system.mem_ctrls.wrQLenPdf::127                     0                       # What write queue length does an incoming req see
system.mem_ctrls.bytesPerActivate::samples     31857761                       # Bytes accessed per row activation
system.mem_ctrls.bytesPerActivate::mean            64                       # Bytes accessed per row activation
system.mem_ctrls.bytesPerActivate::gmean    64.000000                       # Bytes accessed per row activation
system.mem_ctrls.bytesPerActivate::64-71     31857761    100.00%    100.00% # Bytes accessed per row activation
system.mem_ctrls.bytesPerActivate::total     31857761                       # Bytes accessed per row activation
system.mem_ctrls.rdPerTurnAround::samples       707426                       # Reads before turning the bus around for writes
system.mem_ctrls.rdPerTurnAround::mean      28.445699                       # Reads before turning the bus around for writes
system.mem_ctrls.rdPerTurnAround::gmean     22.230472                       # Reads before turning the bus around for writes
system.mem_ctrls.rdPerTurnAround::stdev   2393.896983                       # Reads before turning the bus around for writes
system.mem_ctrls.rdPerTurnAround::0-32767       707420    100.00%    100.00% # Reads before turning the bus around for writes
system.mem_ctrls.rdPerTurnAround::32768-65535            3      0.00%    100.00% # Reads before turning the bus around for writes
system.mem_ctrls.rdPerTurnAround::98304-131071            1      0.00%    100.00% # Reads before turning the bus around for writes
system.mem_ctrls.rdPerTurnAround::163840-196607            1      0.00%    100.00% # Reads before turning the bus around for writes
system.mem_ctrls.rdPerTurnAround::1.99885e+06-2.03162e+06            1      0.00%    100.00% # Reads before turning the bus around for writes
system.mem_ctrls.rdPerTurnAround::total        707426                       # Reads before turning the bus around for writes
system.mem_ctrls.wrPerTurnAround::samples       707426                       # Writes before turning the bus around for reads
system.mem_ctrls.wrPerTurnAround::mean      16.587615                       # Writes before turning the bus around for reads
system.mem_ctrls.wrPerTurnAround::gmean     16.563260                       # Writes before turning the bus around for reads
system.mem_ctrls.wrPerTurnAround::stdev      0.913576                       # Writes before turning the bus around for reads
system.mem_ctrls.wrPerTurnAround::16           499630     70.63%     70.63% # Writes before turning the bus around for reads
system.mem_ctrls.wrPerTurnAround::17             1497      0.21%     70.84% # Writes before turning the bus around for reads
system.mem_ctrls.wrPerTurnAround::18           204706     28.94%     99.77% # Writes before turning the bus around for reads
system.mem_ctrls.wrPerTurnAround::19             1587      0.22%    100.00% # Writes before turning the bus around for reads
system.mem_ctrls.wrPerTurnAround::20                6      0.00%    100.00% # Writes before turning the bus around for reads
system.mem_ctrls.wrPerTurnAround::total        707426                       # Writes before turning the bus around for reads
system.mem_ctrls.bytesReadDRAM             1287888064                       # Total number of bytes read from DRAM
system.mem_ctrls.bytesReadWrQ                   86784                       # Total number of bytes read from write queue
system.mem_ctrls.bytesWritten               751008640                       # Total number of bytes written to DRAM
system.mem_ctrls.bytesReadSys              1287974848                       # Total read bytes from the system interface side
system.mem_ctrls.bytesWrittenSys            751012416                       # Total written bytes from the system interface side
system.mem_ctrls.avgRdBW                       344.44                       # Average DRAM read bandwidth in MiByte/s
system.mem_ctrls.avgWrBW                       200.85                       # Average achieved write bandwidth in MiByte/s
system.mem_ctrls.avgRdBWSys                    344.46                       # Average system read bandwidth in MiByte/s
system.mem_ctrls.avgWrBWSys                    200.85                       # Average system write bandwidth in MiByte/s
system.mem_ctrls.peakBW                      19207.00                       # Theoretical peak bandwidth in MiByte/s
system.mem_ctrls.busUtil                         2.84                       # Data bus utilization in percentage
system.mem_ctrls.busUtilRead                     1.79                       # Data bus utilization in percentage for reads
system.mem_ctrls.busUtilWrite                    1.05                       # Data bus utilization in percentage for writes
system.mem_ctrls.totGap                  3739100000490                       # Total gap between requests
system.mem_ctrls.avgGap                     117363.36                       # Average gap between requests
system.mem_ctrls.masterReadBytes::.cpu0.inst        28736                       # Per-master bytes read from memory
system.mem_ctrls.masterReadBytes::.cpu0.data     22238464                       # Per-master bytes read from memory
system.mem_ctrls.masterReadBytes::.cpu1.inst        53568                       # Per-master bytes read from memory
system.mem_ctrls.masterReadBytes::.cpu1.data   1265567296                       # Per-master bytes read from memory
system.mem_ctrls.masterWriteBytes::.writebacks    751008640                       # Per-master bytes write to memory
system.mem_ctrls.masterReadRate::.cpu0.inst 7685.270823719045                       # Per-master bytes read from memory rate (Bytes/sec)
system.mem_ctrls.masterReadRate::.cpu0.data 5947543.796754118055                       # Per-master bytes read from memory rate (Bytes/sec)
system.mem_ctrls.masterReadRate::.cpu1.inst 14326.440266041962                       # Per-master bytes read from memory rate (Bytes/sec)
system.mem_ctrls.masterReadRate::.cpu1.data 338468381.660697519779                       # Per-master bytes read from memory rate (Bytes/sec)
system.mem_ctrls.masterWriteRate::.writebacks 200852755.754207938910                       # Per-master bytes write to memory rate (Bytes/sec)
system.mem_ctrls.masterReadAccesses::.cpu0.inst          449                       # Per-master read serviced memory accesses
system.mem_ctrls.masterReadAccesses::.cpu0.data       347476                       # Per-master read serviced memory accesses
system.mem_ctrls.masterReadAccesses::.cpu1.inst          837                       # Per-master read serviced memory accesses
system.mem_ctrls.masterReadAccesses::.cpu1.data     19775845                       # Per-master read serviced memory accesses
system.mem_ctrls.masterWriteAccesses::.writebacks     11734569                       # Per-master write serviced memory accesses
system.mem_ctrls.masterReadTotalLat::.cpu0.inst     17169401                       # Per-master read total memory access latency
system.mem_ctrls.masterReadTotalLat::.cpu0.data  14067500216                       # Per-master read total memory access latency
system.mem_ctrls.masterReadTotalLat::.cpu1.inst     30703580                       # Per-master read total memory access latency
system.mem_ctrls.masterReadTotalLat::.cpu1.data 753962112517                       # Per-master read total memory access latency
system.mem_ctrls.masterWriteTotalLat::.writebacks 209545127349982                       # Per-master write total memory access latency
system.mem_ctrls.masterReadAvgLat::.cpu0.inst     38239.20                       # Per-master read average memory access latency
system.mem_ctrls.masterReadAvgLat::.cpu0.data     40484.81                       # Per-master read average memory access latency
system.mem_ctrls.masterReadAvgLat::.cpu1.inst     36682.89                       # Per-master read average memory access latency
system.mem_ctrls.masterReadAvgLat::.cpu1.data     38125.41                       # Per-master read average memory access latency
system.mem_ctrls.masterWriteAvgLat::.writebacks  17857079.14                       # Per-master write average memory access latency
system.mem_ctrls.pageHitRate                     0.00                       # Row buffer hit rate, read and write combined
system.mem_ctrls.rank1.actEnergy         24838026293.778683                       # Energy for activate commands per rank (pJ)
system.mem_ctrls.rank1.preEnergy         43848669495.583023                       # Energy for precharge commands per rank (pJ)
system.mem_ctrls.rank1.readEnergy        27597386092.132542                       # Energy for read commands per rank (pJ)
system.mem_ctrls.rank1.writeEnergy       13840114458.852505                       # Energy for write commands per rank (pJ)
system.mem_ctrls.rank1.refreshEnergy     324574896706.871643                       # Energy for refresh commands per rank (pJ)
system.mem_ctrls.rank1.actBackEnergy     256943154728.862213                       # Energy for active background per rank (pJ)
system.mem_ctrls.rank1.preBackEnergy     1043060327808.182983                       # Energy for precharge background per rank (pJ)
system.mem_ctrls.rank1.actPowerDownEnergy            0                       # Energy for active power-down per rank (pJ)
system.mem_ctrls.rank1.prePowerDownEnergy            0                       # Energy for precharge power-down per rank (pJ)
system.mem_ctrls.rank1.selfRefreshEnergy            0                       # Energy for self refresh per rank (pJ)
system.mem_ctrls.rank1.totalEnergy       1734702575584.350586                       # Total energy per rank (pJ)
system.mem_ctrls.rank1.averagePower        463.935798                       # Core power per rank (mW)
system.mem_ctrls.rank1.totalIdleTime                0                       # Total Idle time Per DRAM Rank
system.mem_ctrls.rank1.memoryStateTime::IDLE 3040944370179                       # Time in different power states
system.mem_ctrls.rank1.memoryStateTime::REF 168085050000                       # Time in different power states
system.mem_ctrls.rank1.memoryStateTime::SREF            0                       # Time in different power states
system.mem_ctrls.rank1.memoryStateTime::PRE_PDN            0                       # Time in different power states
system.mem_ctrls.rank1.memoryStateTime::ACT 530071082475                       # Time in different power states
system.mem_ctrls.rank1.memoryStateTime::ACT_PDN            0                       # Time in different power states
system.mem_ctrls.rank0.actEnergy         24840201623.300812                       # Energy for activate commands per rank (pJ)
system.mem_ctrls.rank0.preEnergy         43852509788.853180                       # Energy for precharge commands per rank (pJ)
system.mem_ctrls.rank0.readEnergy        27598727371.405113                       # Energy for read commands per rank (pJ)
system.mem_ctrls.rank0.writeEnergy       13842251763.588528                       # Energy for write commands per rank (pJ)
system.mem_ctrls.rank0.refreshEnergy     324574896706.871643                       # Energy for refresh commands per rank (pJ)
system.mem_ctrls.rank0.actBackEnergy     256962820461.421265                       # Energy for active background per rank (pJ)
system.mem_ctrls.rank0.preBackEnergy     1043046751464.923096                       # Energy for precharge background per rank (pJ)
system.mem_ctrls.rank0.actPowerDownEnergy            0                       # Energy for active power-down per rank (pJ)
system.mem_ctrls.rank0.prePowerDownEnergy            0                       # Energy for precharge power-down per rank (pJ)
system.mem_ctrls.rank0.selfRefreshEnergy            0                       # Energy for self refresh per rank (pJ)
system.mem_ctrls.rank0.totalEnergy       1734718159180.419922                       # Total energy per rank (pJ)
system.mem_ctrls.rank0.averagePower        463.939966                       # Core power per rank (mW)
system.mem_ctrls.rank0.totalIdleTime                0                       # Total Idle time Per DRAM Rank
system.mem_ctrls.rank0.memoryStateTime::IDLE 3040889443619                       # Time in different power states
system.mem_ctrls.rank0.memoryStateTime::REF 168085050000                       # Time in different power states
system.mem_ctrls.rank0.memoryStateTime::SREF            0                       # Time in different power states
system.mem_ctrls.rank0.memoryStateTime::PRE_PDN            0                       # Time in different power states
system.mem_ctrls.rank0.memoryStateTime::ACT 530126009035                       # Time in different power states
system.mem_ctrls.rank0.memoryStateTime::ACT_PDN            0                       # Time in different power states
system.cpu_clk_domain.clock                       333                       # Clock period in ticks
system.tol2bus.pwrStateResidencyTicks::UNDEFINED 3739100502654                       # Cumulative time (in ticks) in various power states
system.tol2bus.trans_dist::ReadResp          40561049                       # Transaction distribution
system.tol2bus.trans_dist::WritebackDirty     79189687                       # Transaction distribution
system.tol2bus.trans_dist::WritebackClean          356                       # Transaction distribution
system.tol2bus.trans_dist::CleanEvict        30823443                       # Transaction distribution
system.tol2bus.trans_dist::ReadExReq         49590576                       # Transaction distribution
system.tol2bus.trans_dist::ReadExResp        49590576                       # Transaction distribution
system.tol2bus.trans_dist::ReadCleanReq          1298                       # Transaction distribution
system.tol2bus.trans_dist::ReadSharedReq     40559751                       # Transaction distribution
system.tol2bus.pkt_count_system.cpu0.icache.mem_side::system.l2.cpu_side          916                       # Packet count per connected master and slave (bytes)
system.tol2bus.pkt_count_system.cpu0.dcache.mem_side::system.l2.cpu_side      1043740                       # Packet count per connected master and slave (bytes)
system.tol2bus.pkt_count_system.cpu1.icache.mem_side::system.l2.cpu_side         2036                       # Packet count per connected master and slave (bytes)
system.tol2bus.pkt_count_system.cpu1.dcache.mem_side::system.l2.cpu_side    269407225                       # Packet count per connected master and slave (bytes)
system.tol2bus.pkt_count::total             270453917                       # Packet count per connected master and slave (bytes)
system.tol2bus.pkt_size_system.cpu0.icache.mem_side::system.l2.cpu_side        29888                       # Cumulative packet size per connected master and slave (bytes)
system.tol2bus.pkt_size_system.cpu0.dcache.mem_side::system.l2.cpu_side     22299520                       # Cumulative packet size per connected master and slave (bytes)
system.tol2bus.pkt_size_system.cpu1.icache.mem_side::system.l2.cpu_side        75968                       # Cumulative packet size per connected master and slave (bytes)
system.tol2bus.pkt_size_system.cpu1.dcache.mem_side::system.l2.cpu_side  10064448960                       # Cumulative packet size per connected master and slave (bytes)
system.tol2bus.pkt_size::total            10086854336                       # Cumulative packet size per connected master and slave (bytes)
system.tol2bus.snoops                        19862819                       # Total snoops (count)
system.tol2bus.snoopTraffic                 751012416                       # Total snoop traffic (bytes)
system.tol2bus.snoop_fanout::samples        110014444                       # Request fanout histogram
system.tol2bus.snoop_fanout::mean            0.000012                       # Request fanout histogram
system.tol2bus.snoop_fanout::stdev           0.003506                       # Request fanout histogram
system.tol2bus.snoop_fanout::underflows             0      0.00%      0.00% # Request fanout histogram
system.tol2bus.snoop_fanout::0              110013092    100.00%    100.00% # Request fanout histogram
system.tol2bus.snoop_fanout::1                   1352      0.00%    100.00% # Request fanout histogram
system.tol2bus.snoop_fanout::2                      0      0.00%    100.00% # Request fanout histogram
system.tol2bus.snoop_fanout::3                      0      0.00%    100.00% # Request fanout histogram
system.tol2bus.snoop_fanout::4                      0      0.00%    100.00% # Request fanout histogram
system.tol2bus.snoop_fanout::5                      0      0.00%    100.00% # Request fanout histogram
system.tol2bus.snoop_fanout::6                      0      0.00%    100.00% # Request fanout histogram
system.tol2bus.snoop_fanout::7                      0      0.00%    100.00% # Request fanout histogram
system.tol2bus.snoop_fanout::8                      0      0.00%    100.00% # Request fanout histogram
system.tol2bus.snoop_fanout::overflows              0      0.00%    100.00% # Request fanout histogram
system.tol2bus.snoop_fanout::min_value              0                       # Request fanout histogram
system.tol2bus.snoop_fanout::max_value              1                       # Request fanout histogram
system.tol2bus.snoop_fanout::total          110014444                       # Request fanout histogram
system.tol2bus.reqLayer0.occupancy       104966008920                       # Layer occupancy (ticks)
system.tol2bus.reqLayer0.utilization              2.8                       # Layer utilization (%)
system.tol2bus.respLayer5.occupancy       89712608589                       # Layer occupancy (ticks)
system.tol2bus.respLayer5.utilization             2.4                       # Layer utilization (%)
system.tol2bus.respLayer4.occupancy            848815                       # Layer occupancy (ticks)
system.tol2bus.respLayer4.utilization             0.0                       # Layer utilization (%)
system.tol2bus.respLayer1.occupancy         347568084                       # Layer occupancy (ticks)
system.tol2bus.respLayer1.utilization             0.0                       # Layer utilization (%)
system.tol2bus.respLayer0.occupancy            448551                       # Layer occupancy (ticks)
system.tol2bus.respLayer0.utilization             0.0                       # Layer utilization (%)

---------- End Simulation Statistics   ----------
