
---------- Begin Simulation Statistics ----------
sim_seconds                                  2.346949                       # Number of seconds simulated
sim_ticks                                2346949346500                       # Number of ticks simulated
final_tick                               2346949346500                       # Number of ticks from beginning of simulation (restored from checkpoints and never reset)
sim_freq                                 1000000000000                       # Frequency of simulated ticks
host_inst_rate                                 396458                       # Simulator instruction rate (inst/s)
host_op_rate                                   751423                       # Simulator op (including micro ops) rate (op/s)
host_tick_rate                              905309660                       # Simulator tick rate (ticks/s)
host_mem_usage                                8630972                       # Number of bytes of host memory used
host_seconds                                  2592.43                       # Real time elapsed on the host
sim_insts                                  1027788477                       # Number of instructions simulated
sim_ops                                    1948010053                       # Number of ops (including micro ops) simulated
system.voltage_domain.voltage                       1                       # Voltage in Volts
system.clk_domain.clock                          1000                       # Clock period in ticks
system.mem_ctrls.pwrStateResidencyTicks::UNDEFINED 2346949346500                       # Cumulative time (in ticks) in various power states
system.mem_ctrls.bytes_read::.cpu0.inst         29248                       # Number of bytes read from this memory
system.mem_ctrls.bytes_read::.cpu0.data      22238464                       # Number of bytes read from this memory
system.mem_ctrls.bytes_read::.cpu1.inst        197184                       # Number of bytes read from this memory
system.mem_ctrls.bytes_read::.cpu1.data      42590592                       # Number of bytes read from this memory
system.mem_ctrls.bytes_read::total           65055488                       # Number of bytes read from this memory
system.mem_ctrls.bytes_inst_read::.cpu0.inst        29248                       # Number of instructions bytes read from this memory
system.mem_ctrls.bytes_inst_read::.cpu1.inst       197184                       # Number of instructions bytes read from this memory
system.mem_ctrls.bytes_inst_read::total        226432                       # Number of instructions bytes read from this memory
system.mem_ctrls.bytes_written::.writebacks     21994112                       # Number of bytes written to this memory
system.mem_ctrls.bytes_written::total        21994112                       # Number of bytes written to this memory
system.mem_ctrls.num_reads::.cpu0.inst            457                       # Number of read requests responded to by this memory
system.mem_ctrls.num_reads::.cpu0.data         347476                       # Number of read requests responded to by this memory
system.mem_ctrls.num_reads::.cpu1.inst           3081                       # Number of read requests responded to by this memory
system.mem_ctrls.num_reads::.cpu1.data         665478                       # Number of read requests responded to by this memory
system.mem_ctrls.num_reads::total             1016492                       # Number of read requests responded to by this memory
system.mem_ctrls.num_writes::.writebacks       343658                       # Number of write requests responded to by this memory
system.mem_ctrls.num_writes::total             343658                       # Number of write requests responded to by this memory
system.mem_ctrls.bw_read::.cpu0.inst            12462                       # Total read bandwidth from this memory (bytes/s)
system.mem_ctrls.bw_read::.cpu0.data          9475477                       # Total read bandwidth from this memory (bytes/s)
system.mem_ctrls.bw_read::.cpu1.inst            84017                       # Total read bandwidth from this memory (bytes/s)
system.mem_ctrls.bw_read::.cpu1.data         18147214                       # Total read bandwidth from this memory (bytes/s)
system.mem_ctrls.bw_read::total              27719170                       # Total read bandwidth from this memory (bytes/s)
system.mem_ctrls.bw_inst_read::.cpu0.inst        12462                       # Instruction read bandwidth from this memory (bytes/s)
system.mem_ctrls.bw_inst_read::.cpu1.inst        84017                       # Instruction read bandwidth from this memory (bytes/s)
system.mem_ctrls.bw_inst_read::total            96479                       # Instruction read bandwidth from this memory (bytes/s)
system.mem_ctrls.bw_write::.writebacks        9371362                       # Write bandwidth from this memory (bytes/s)
system.mem_ctrls.bw_write::total              9371362                       # Write bandwidth from this memory (bytes/s)
system.mem_ctrls.bw_total::.writebacks        9371362                       # Total bandwidth to/from this memory (bytes/s)
system.mem_ctrls.bw_total::.cpu0.inst           12462                       # Total bandwidth to/from this memory (bytes/s)
system.mem_ctrls.bw_total::.cpu0.data         9475477                       # Total bandwidth to/from this memory (bytes/s)
system.mem_ctrls.bw_total::.cpu1.inst           84017                       # Total bandwidth to/from this memory (bytes/s)
system.mem_ctrls.bw_total::.cpu1.data        18147214                       # Total bandwidth to/from this memory (bytes/s)
system.mem_ctrls.bw_total::total             37090532                       # Total bandwidth to/from this memory (bytes/s)
system.mem_ctrls.avgPriority_.writebacks::samples    343658.00                       # Average QoS priority value for accepted requests
system.mem_ctrls.avgPriority_.cpu0.inst::samples       457.00                       # Average QoS priority value for accepted requests
system.mem_ctrls.avgPriority_.cpu0.data::samples    347476.00                       # Average QoS priority value for accepted requests
system.mem_ctrls.avgPriority_.cpu1.inst::samples      3081.00                       # Average QoS priority value for accepted requests
system.mem_ctrls.avgPriority_.cpu1.data::samples    665402.00                       # Average QoS priority value for accepted requests
system.mem_ctrls.priorityMinLatency      0.000000017492                       # per QoS priority minimum request to response latency (s)
system.mem_ctrls.priorityMaxLatency      0.511296131652                       # per QoS priority maximum request to response latency (s)
system.mem_ctrls.numReadWriteTurnArounds        19585                       # Number of turnarounds from READ to WRITE
system.mem_ctrls.numWriteReadTurnArounds        19585                       # Number of turnarounds from WRITE to READ
system.mem_ctrls.numStayReadState             2599455                       # Number of times bus staying in READ state
system.mem_ctrls.numStayWriteState             337821                       # Number of times bus staying in WRITE state
system.mem_ctrls.readReqs                     1016492                       # Number of read requests accepted
system.mem_ctrls.writeReqs                     343658                       # Number of write requests accepted
system.mem_ctrls.readBursts                   1016492                       # Number of DRAM read bursts, including those serviced by the write queue
system.mem_ctrls.writeBursts                   343658                       # Number of DRAM write bursts, including those merged in the write queue
system.mem_ctrls.bytesReadDRAM               65050624                       # Total number of bytes read from DRAM
system.mem_ctrls.bytesReadWrQ                    4864                       # Total number of bytes read from write queue
system.mem_ctrls.bytesWritten                21990528                       # Total number of bytes written to DRAM
system.mem_ctrls.bytesReadSys                65055488                       # Total read bytes from the system interface side
system.mem_ctrls.bytesWrittenSys             21994112                       # Total written bytes from the system interface side
system.mem_ctrls.servicedByWrQ                     76                       # Number of DRAM read bursts serviced by the write queue
system.mem_ctrls.mergedWrBursts                     0                       # Number of DRAM write bursts merged with an existing one
system.mem_ctrls.neitherReadNorWriteReqs            0                       # Number of requests that are neither read nor write
system.mem_ctrls.perBankRdBursts::0             31795                       # Per bank write bursts
system.mem_ctrls.perBankRdBursts::1             31942                       # Per bank write bursts
system.mem_ctrls.perBankRdBursts::2             31703                       # Per bank write bursts
system.mem_ctrls.perBankRdBursts::3             31650                       # Per bank write bursts
system.mem_ctrls.perBankRdBursts::4             31748                       # Per bank write bursts
system.mem_ctrls.perBankRdBursts::5             31680                       # Per bank write bursts
system.mem_ctrls.perBankRdBursts::6             31460                       # Per bank write bursts
system.mem_ctrls.perBankRdBursts::7             31437                       # Per bank write bursts
system.mem_ctrls.perBankRdBursts::8             31607                       # Per bank write bursts
system.mem_ctrls.perBankRdBursts::9             31679                       # Per bank write bursts
system.mem_ctrls.perBankRdBursts::10            31646                       # Per bank write bursts
system.mem_ctrls.perBankRdBursts::11            31767                       # Per bank write bursts
system.mem_ctrls.perBankRdBursts::12            31627                       # Per bank write bursts
system.mem_ctrls.perBankRdBursts::13            31831                       # Per bank write bursts
system.mem_ctrls.perBankRdBursts::14            31856                       # Per bank write bursts
system.mem_ctrls.perBankRdBursts::15            32053                       # Per bank write bursts
system.mem_ctrls.perBankRdBursts::16            31879                       # Per bank write bursts
system.mem_ctrls.perBankRdBursts::17            31647                       # Per bank write bursts
system.mem_ctrls.perBankRdBursts::18            31749                       # Per bank write bursts
system.mem_ctrls.perBankRdBursts::19            31555                       # Per bank write bursts
system.mem_ctrls.perBankRdBursts::20            31708                       # Per bank write bursts
system.mem_ctrls.perBankRdBursts::21            31617                       # Per bank write bursts
system.mem_ctrls.perBankRdBursts::22            31814                       # Per bank write bursts
system.mem_ctrls.perBankRdBursts::23            31821                       # Per bank write bursts
system.mem_ctrls.perBankRdBursts::24            31741                       # Per bank write bursts
system.mem_ctrls.perBankRdBursts::25            31770                       # Per bank write bursts
system.mem_ctrls.perBankRdBursts::26            31905                       # Per bank write bursts
system.mem_ctrls.perBankRdBursts::27            32093                       # Per bank write bursts
system.mem_ctrls.perBankRdBursts::28            31976                       # Per bank write bursts
system.mem_ctrls.perBankRdBursts::29            31901                       # Per bank write bursts
system.mem_ctrls.perBankRdBursts::30            31826                       # Per bank write bursts
system.mem_ctrls.perBankRdBursts::31            31933                       # Per bank write bursts
system.mem_ctrls.perBankWrBursts::0             10791                       # Per bank write bursts
system.mem_ctrls.perBankWrBursts::1             10820                       # Per bank write bursts
system.mem_ctrls.perBankWrBursts::2             10728                       # Per bank write bursts
system.mem_ctrls.perBankWrBursts::3             10696                       # Per bank write bursts
system.mem_ctrls.perBankWrBursts::4             10735                       # Per bank write bursts
system.mem_ctrls.perBankWrBursts::5             10756                       # Per bank write bursts
system.mem_ctrls.perBankWrBursts::6             10749                       # Per bank write bursts
system.mem_ctrls.perBankWrBursts::7             10699                       # Per bank write bursts
system.mem_ctrls.perBankWrBursts::8             10748                       # Per bank write bursts
system.mem_ctrls.perBankWrBursts::9             10753                       # Per bank write bursts
system.mem_ctrls.perBankWrBursts::10            10735                       # Per bank write bursts
system.mem_ctrls.perBankWrBursts::11            10746                       # Per bank write bursts
system.mem_ctrls.perBankWrBursts::12            10652                       # Per bank write bursts
system.mem_ctrls.perBankWrBursts::13            10678                       # Per bank write bursts
system.mem_ctrls.perBankWrBursts::14            10757                       # Per bank write bursts
system.mem_ctrls.perBankWrBursts::15            10750                       # Per bank write bursts
system.mem_ctrls.perBankWrBursts::16            10738                       # Per bank write bursts
system.mem_ctrls.perBankWrBursts::17            10701                       # Per bank write bursts
system.mem_ctrls.perBankWrBursts::18            10772                       # Per bank write bursts
system.mem_ctrls.perBankWrBursts::19            10619                       # Per bank write bursts
system.mem_ctrls.perBankWrBursts::20            10759                       # Per bank write bursts
system.mem_ctrls.perBankWrBursts::21            10647                       # Per bank write bursts
system.mem_ctrls.perBankWrBursts::22            10758                       # Per bank write bursts
system.mem_ctrls.perBankWrBursts::23            10727                       # Per bank write bursts
system.mem_ctrls.perBankWrBursts::24            10706                       # Per bank write bursts
system.mem_ctrls.perBankWrBursts::25            10697                       # Per bank write bursts
system.mem_ctrls.perBankWrBursts::26            10736                       # Per bank write bursts
system.mem_ctrls.perBankWrBursts::27            10805                       # Per bank write bursts
system.mem_ctrls.perBankWrBursts::28            10824                       # Per bank write bursts
system.mem_ctrls.perBankWrBursts::29            10810                       # Per bank write bursts
system.mem_ctrls.perBankWrBursts::30            10758                       # Per bank write bursts
system.mem_ctrls.perBankWrBursts::31            10752                       # Per bank write bursts
system.mem_ctrls.numRdRetry                         0                       # Number of times read queue was full causing retry
system.mem_ctrls.numWrRetry                         0                       # Number of times write queue was full causing retry
system.mem_ctrls.totGap                  2344221265500                       # Total gap between requests
system.mem_ctrls.readPktSize::0                     0                       # Read request sizes (log2)
system.mem_ctrls.readPktSize::1                     0                       # Read request sizes (log2)
system.mem_ctrls.readPktSize::2                     0                       # Read request sizes (log2)
system.mem_ctrls.readPktSize::3                     0                       # Read request sizes (log2)
system.mem_ctrls.readPktSize::4                     0                       # Read request sizes (log2)
system.mem_ctrls.readPktSize::5                     0                       # Read request sizes (log2)
system.mem_ctrls.readPktSize::6               1016492                       # Read request sizes (log2)
system.mem_ctrls.writePktSize::0                    0                       # Write request sizes (log2)
system.mem_ctrls.writePktSize::1                    0                       # Write request sizes (log2)
system.mem_ctrls.writePktSize::2                    0                       # Write request sizes (log2)
system.mem_ctrls.writePktSize::3                    0                       # Write request sizes (log2)
system.mem_ctrls.writePktSize::4                    0                       # Write request sizes (log2)
system.mem_ctrls.writePktSize::5                    0                       # Write request sizes (log2)
system.mem_ctrls.writePktSize::6               343658                       # Write request sizes (log2)
system.mem_ctrls.rdQLenPdf::0                  995337                       # What read queue length does an incoming req see
system.mem_ctrls.rdQLenPdf::1                   16860                       # What read queue length does an incoming req see
system.mem_ctrls.rdQLenPdf::2                    4219                       # What read queue length does an incoming req see
system.mem_ctrls.rdQLenPdf::3                       0                       # What read queue length does an incoming req see
system.mem_ctrls.rdQLenPdf::4                       0                       # What read queue length does an incoming req see
system.mem_ctrls.rdQLenPdf::5                       0                       # What read queue length does an incoming req see
system.mem_ctrls.rdQLenPdf::6                       0                       # What read queue length does an incoming req see
system.mem_ctrls.rdQLenPdf::7                       0                       # What read queue length does an incoming req see
system.mem_ctrls.rdQLenPdf::8                       0                       # What read queue length does an incoming req see
system.mem_ctrls.rdQLenPdf::9                       0                       # What read queue length does an incoming req see
system.mem_ctrls.rdQLenPdf::10                      0                       # What read queue length does an incoming req see
system.mem_ctrls.rdQLenPdf::11                      0                       # What read queue length does an incoming req see
system.mem_ctrls.rdQLenPdf::12                      0                       # What read queue length does an incoming req see
system.mem_ctrls.rdQLenPdf::13                      0                       # What read queue length does an incoming req see
system.mem_ctrls.rdQLenPdf::14                      0                       # What read queue length does an incoming req see
system.mem_ctrls.rdQLenPdf::15                      0                       # What read queue length does an incoming req see
system.mem_ctrls.rdQLenPdf::16                      0                       # What read queue length does an incoming req see
system.mem_ctrls.rdQLenPdf::17                      0                       # What read queue length does an incoming req see
system.mem_ctrls.rdQLenPdf::18                      0                       # What read queue length does an incoming req see
system.mem_ctrls.rdQLenPdf::19                      0                       # What read queue length does an incoming req see
system.mem_ctrls.rdQLenPdf::20                      0                       # What read queue length does an incoming req see
system.mem_ctrls.rdQLenPdf::21                      0                       # What read queue length does an incoming req see
system.mem_ctrls.rdQLenPdf::22                      0                       # What read queue length does an incoming req see
system.mem_ctrls.rdQLenPdf::23                      0                       # What read queue length does an incoming req see
system.mem_ctrls.rdQLenPdf::24                      0                       # What read queue length does an incoming req see
system.mem_ctrls.rdQLenPdf::25                      0                       # What read queue length does an incoming req see
system.mem_ctrls.rdQLenPdf::26                      0                       # What read queue length does an incoming req see
system.mem_ctrls.rdQLenPdf::27                      0                       # What read queue length does an incoming req see
system.mem_ctrls.rdQLenPdf::28                      0                       # What read queue length does an incoming req see
system.mem_ctrls.rdQLenPdf::29                      0                       # What read queue length does an incoming req see
system.mem_ctrls.rdQLenPdf::30                      0                       # What read queue length does an incoming req see
system.mem_ctrls.rdQLenPdf::31                      0                       # What read queue length does an incoming req see
system.mem_ctrls.rdQLenPdf::32                      0                       # What read queue length does an incoming req see
system.mem_ctrls.rdQLenPdf::33                      0                       # What read queue length does an incoming req see
system.mem_ctrls.rdQLenPdf::34                      0                       # What read queue length does an incoming req see
system.mem_ctrls.rdQLenPdf::35                      0                       # What read queue length does an incoming req see
system.mem_ctrls.rdQLenPdf::36                      0                       # What read queue length does an incoming req see
system.mem_ctrls.rdQLenPdf::37                      0                       # What read queue length does an incoming req see
system.mem_ctrls.rdQLenPdf::38                      0                       # What read queue length does an incoming req see
system.mem_ctrls.rdQLenPdf::39                      0                       # What read queue length does an incoming req see
system.mem_ctrls.rdQLenPdf::40                      0                       # What read queue length does an incoming req see
system.mem_ctrls.rdQLenPdf::41                      0                       # What read queue length does an incoming req see
system.mem_ctrls.rdQLenPdf::42                      0                       # What read queue length does an incoming req see
system.mem_ctrls.rdQLenPdf::43                      0                       # What read queue length does an incoming req see
system.mem_ctrls.rdQLenPdf::44                      0                       # What read queue length does an incoming req see
system.mem_ctrls.rdQLenPdf::45                      0                       # What read queue length does an incoming req see
system.mem_ctrls.rdQLenPdf::46                      0                       # What read queue length does an incoming req see
system.mem_ctrls.rdQLenPdf::47                      0                       # What read queue length does an incoming req see
system.mem_ctrls.rdQLenPdf::48                      0                       # What read queue length does an incoming req see
system.mem_ctrls.rdQLenPdf::49                      0                       # What read queue length does an incoming req see
system.mem_ctrls.rdQLenPdf::50                      0                       # What read queue length does an incoming req see
system.mem_ctrls.rdQLenPdf::51                      0                       # What read queue length does an incoming req see
system.mem_ctrls.rdQLenPdf::52                      0                       # What read queue length does an incoming req see
system.mem_ctrls.rdQLenPdf::53                      0                       # What read queue length does an incoming req see
system.mem_ctrls.rdQLenPdf::54                      0                       # What read queue length does an incoming req see
system.mem_ctrls.rdQLenPdf::55                      0                       # What read queue length does an incoming req see
system.mem_ctrls.rdQLenPdf::56                      0                       # What read queue length does an incoming req see
system.mem_ctrls.rdQLenPdf::57                      0                       # What read queue length does an incoming req see
system.mem_ctrls.rdQLenPdf::58                      0                       # What read queue length does an incoming req see
system.mem_ctrls.rdQLenPdf::59                      0                       # What read queue length does an incoming req see
system.mem_ctrls.rdQLenPdf::60                      0                       # What read queue length does an incoming req see
system.mem_ctrls.rdQLenPdf::61                      0                       # What read queue length does an incoming req see
system.mem_ctrls.rdQLenPdf::62                      0                       # What read queue length does an incoming req see
system.mem_ctrls.rdQLenPdf::63                      0                       # What read queue length does an incoming req see
system.mem_ctrls.wrQLenPdf::0                       1                       # What write queue length does an incoming req see
system.mem_ctrls.wrQLenPdf::1                       1                       # What write queue length does an incoming req see
system.mem_ctrls.wrQLenPdf::2                       1                       # What write queue length does an incoming req see
system.mem_ctrls.wrQLenPdf::3                       1                       # What write queue length does an incoming req see
system.mem_ctrls.wrQLenPdf::4                       1                       # What write queue length does an incoming req see
system.mem_ctrls.wrQLenPdf::5                       1                       # What write queue length does an incoming req see
system.mem_ctrls.wrQLenPdf::6                       1                       # What write queue length does an incoming req see
system.mem_ctrls.wrQLenPdf::7                       1                       # What write queue length does an incoming req see
system.mem_ctrls.wrQLenPdf::8                       1                       # What write queue length does an incoming req see
system.mem_ctrls.wrQLenPdf::9                       1                       # What write queue length does an incoming req see
system.mem_ctrls.wrQLenPdf::10                      1                       # What write queue length does an incoming req see
system.mem_ctrls.wrQLenPdf::11                      1                       # What write queue length does an incoming req see
system.mem_ctrls.wrQLenPdf::12                      1                       # What write queue length does an incoming req see
system.mem_ctrls.wrQLenPdf::13                      1                       # What write queue length does an incoming req see
system.mem_ctrls.wrQLenPdf::14                      1                       # What write queue length does an incoming req see
system.mem_ctrls.wrQLenPdf::15                      1                       # What write queue length does an incoming req see
system.mem_ctrls.wrQLenPdf::16                      1                       # What write queue length does an incoming req see
system.mem_ctrls.wrQLenPdf::17                      1                       # What write queue length does an incoming req see
system.mem_ctrls.wrQLenPdf::18                      1                       # What write queue length does an incoming req see
system.mem_ctrls.wrQLenPdf::19                      1                       # What write queue length does an incoming req see
system.mem_ctrls.wrQLenPdf::20                      1                       # What write queue length does an incoming req see
system.mem_ctrls.wrQLenPdf::21                      1                       # What write queue length does an incoming req see
system.mem_ctrls.wrQLenPdf::22                      1                       # What write queue length does an incoming req see
system.mem_ctrls.wrQLenPdf::23                      1                       # What write queue length does an incoming req see
system.mem_ctrls.wrQLenPdf::24                      1                       # What write queue length does an incoming req see
system.mem_ctrls.wrQLenPdf::25                      1                       # What write queue length does an incoming req see
system.mem_ctrls.wrQLenPdf::26                      1                       # What write queue length does an incoming req see
system.mem_ctrls.wrQLenPdf::27                      1                       # What write queue length does an incoming req see
system.mem_ctrls.wrQLenPdf::28                      1                       # What write queue length does an incoming req see
system.mem_ctrls.wrQLenPdf::29                      1                       # What write queue length does an incoming req see
system.mem_ctrls.wrQLenPdf::30                      1                       # What write queue length does an incoming req see
system.mem_ctrls.wrQLenPdf::31                      1                       # What write queue length does an incoming req see
system.mem_ctrls.wrQLenPdf::32                      1                       # What write queue length does an incoming req see
system.mem_ctrls.wrQLenPdf::33                      1                       # What write queue length does an incoming req see
system.mem_ctrls.wrQLenPdf::34                      1                       # What write queue length does an incoming req see
system.mem_ctrls.wrQLenPdf::35                      1                       # What write queue length does an incoming req see
system.mem_ctrls.wrQLenPdf::36                      1                       # What write queue length does an incoming req see
system.mem_ctrls.wrQLenPdf::37                      1                       # What write queue length does an incoming req see
system.mem_ctrls.wrQLenPdf::38                      1                       # What write queue length does an incoming req see
system.mem_ctrls.wrQLenPdf::39                      1                       # What write queue length does an incoming req see
system.mem_ctrls.wrQLenPdf::40                      1                       # What write queue length does an incoming req see
system.mem_ctrls.wrQLenPdf::41                      1                       # What write queue length does an incoming req see
system.mem_ctrls.wrQLenPdf::42                      1                       # What write queue length does an incoming req see
system.mem_ctrls.wrQLenPdf::43                      1                       # What write queue length does an incoming req see
system.mem_ctrls.wrQLenPdf::44                      1                       # What write queue length does an incoming req see
system.mem_ctrls.wrQLenPdf::45                      1                       # What write queue length does an incoming req see
system.mem_ctrls.wrQLenPdf::46                      1                       # What write queue length does an incoming req see
system.mem_ctrls.wrQLenPdf::47                  14983                       # What write queue length does an incoming req see
system.mem_ctrls.wrQLenPdf::48                  15011                       # What write queue length does an incoming req see
system.mem_ctrls.wrQLenPdf::49                  18514                       # What write queue length does an incoming req see
system.mem_ctrls.wrQLenPdf::50                  19626                       # What write queue length does an incoming req see
system.mem_ctrls.wrQLenPdf::51                  19808                       # What write queue length does an incoming req see
system.mem_ctrls.wrQLenPdf::52                  19886                       # What write queue length does an incoming req see
system.mem_ctrls.wrQLenPdf::53                  19988                       # What write queue length does an incoming req see
system.mem_ctrls.wrQLenPdf::54                  19716                       # What write queue length does an incoming req see
system.mem_ctrls.wrQLenPdf::55                  19664                       # What write queue length does an incoming req see
system.mem_ctrls.wrQLenPdf::56                  19639                       # What write queue length does an incoming req see
system.mem_ctrls.wrQLenPdf::57                  19615                       # What write queue length does an incoming req see
system.mem_ctrls.wrQLenPdf::58                  19599                       # What write queue length does an incoming req see
system.mem_ctrls.wrQLenPdf::59                  19620                       # What write queue length does an incoming req see
system.mem_ctrls.wrQLenPdf::60                  19588                       # What write queue length does an incoming req see
system.mem_ctrls.wrQLenPdf::61                  19599                       # What write queue length does an incoming req see
system.mem_ctrls.wrQLenPdf::62                  19585                       # What write queue length does an incoming req see
system.mem_ctrls.wrQLenPdf::63                  19585                       # What write queue length does an incoming req see
system.mem_ctrls.wrQLenPdf::64                  19585                       # What write queue length does an incoming req see
system.mem_ctrls.wrQLenPdf::65                      0                       # What write queue length does an incoming req see
system.mem_ctrls.wrQLenPdf::66                      0                       # What write queue length does an incoming req see
system.mem_ctrls.wrQLenPdf::67                      0                       # What write queue length does an incoming req see
system.mem_ctrls.wrQLenPdf::68                      0                       # What write queue length does an incoming req see
system.mem_ctrls.wrQLenPdf::69                      0                       # What write queue length does an incoming req see
system.mem_ctrls.wrQLenPdf::70                      0                       # What write queue length does an incoming req see
system.mem_ctrls.wrQLenPdf::71                      0                       # What write queue length does an incoming req see
system.mem_ctrls.wrQLenPdf::72                      0                       # What write queue length does an incoming req see
system.mem_ctrls.wrQLenPdf::73                      0                       # What write queue length does an incoming req see
system.mem_ctrls.wrQLenPdf::74                      0                       # What write queue length does an incoming req see
system.mem_ctrls.wrQLenPdf::75                      0                       # What write queue length does an incoming req see
system.mem_ctrls.wrQLenPdf::76                      0                       # What write queue length does an incoming req see
system.mem_ctrls.wrQLenPdf::77                      0                       # What write queue length does an incoming req see
system.mem_ctrls.wrQLenPdf::78                      0                       # What write queue length does an incoming req see
system.mem_ctrls.wrQLenPdf::79                      0                       # What write queue length does an incoming req see
system.mem_ctrls.wrQLenPdf::80                      0                       # What write queue length does an incoming req see
system.mem_ctrls.wrQLenPdf::81                      0                       # What write queue length does an incoming req see
system.mem_ctrls.wrQLenPdf::82                      0                       # What write queue length does an incoming req see
system.mem_ctrls.wrQLenPdf::83                      0                       # What write queue length does an incoming req see
system.mem_ctrls.wrQLenPdf::84                      0                       # What write queue length does an incoming req see
system.mem_ctrls.wrQLenPdf::85                      0                       # What write queue length does an incoming req see
system.mem_ctrls.wrQLenPdf::86                      0                       # What write queue length does an incoming req see
system.mem_ctrls.wrQLenPdf::87                      0                       # What write queue length does an incoming req see
system.mem_ctrls.wrQLenPdf::88                      0                       # What write queue length does an incoming req see
system.mem_ctrls.wrQLenPdf::89                      0                       # What write queue length does an incoming req see
system.mem_ctrls.wrQLenPdf::90                      0                       # What write queue length does an incoming req see
system.mem_ctrls.wrQLenPdf::91                      0                       # What write queue length does an incoming req see
system.mem_ctrls.wrQLenPdf::92                      0                       # What write queue length does an incoming req see
system.mem_ctrls.wrQLenPdf::93                      0                       # What write queue length does an incoming req see
system.mem_ctrls.wrQLenPdf::94                      0                       # What write queue length does an incoming req see
system.mem_ctrls.wrQLenPdf::95                      0                       # What write queue length does an incoming req see
system.mem_ctrls.wrQLenPdf::96                      0                       # What write queue length does an incoming req see
system.mem_ctrls.wrQLenPdf::97                      0                       # What write queue length does an incoming req see
system.mem_ctrls.wrQLenPdf::98                      0                       # What write queue length does an incoming req see
system.mem_ctrls.wrQLenPdf::99                      0                       # What write queue length does an incoming req see
system.mem_ctrls.wrQLenPdf::100                     0                       # What write queue length does an incoming req see
system.mem_ctrls.wrQLenPdf::101                     0                       # What write queue length does an incoming req see
system.mem_ctrls.wrQLenPdf::102                     0                       # What write queue length does an incoming req see
system.mem_ctrls.wrQLenPdf::103                     0                       # What write queue length does an incoming req see
system.mem_ctrls.wrQLenPdf::104                     0                       # What write queue length does an incoming req see
system.mem_ctrls.wrQLenPdf::105                     0                       # What write queue length does an incoming req see
system.mem_ctrls.wrQLenPdf::106                     0                       # What write queue length does an incoming req see
system.mem_ctrls.wrQLenPdf::107                     0                       # What write queue length does an incoming req see
system.mem_ctrls.wrQLenPdf::108                     0                       # What write queue length does an incoming req see
system.mem_ctrls.wrQLenPdf::109                     0                       # What write queue length does an incoming req see
system.mem_ctrls.wrQLenPdf::110                     0                       # What write queue length does an incoming req see
system.mem_ctrls.wrQLenPdf::111                     0                       # What write queue length does an incoming req see
system.mem_ctrls.wrQLenPdf::112                     0                       # What write queue length does an incoming req see
system.mem_ctrls.wrQLenPdf::113                     0                       # What write queue length does an incoming req see
system.mem_ctrls.wrQLenPdf::114                     0                       # What write queue length does an incoming req see
system.mem_ctrls.wrQLenPdf::115                     0                       # What write queue length does an incoming req see
system.mem_ctrls.wrQLenPdf::116                     0                       # What write queue length does an incoming req see
system.mem_ctrls.wrQLenPdf::117                     0                       # What write queue length does an incoming req see
system.mem_ctrls.wrQLenPdf::118                     0                       # What write queue length does an incoming req see
system.mem_ctrls.wrQLenPdf::119                     0                       # What write queue length does an incoming req see
system.mem_ctrls.wrQLenPdf::120                     0                       # What write queue length does an incoming req see
system.mem_ctrls.wrQLenPdf::121                     0                       # What write queue length does an incoming req see
system.mem_ctrls.wrQLenPdf::122                     0                       # What write queue length does an incoming req see
system.mem_ctrls.wrQLenPdf::123                     0                       # What write queue length does an incoming req see
system.mem_ctrls.wrQLenPdf::124                     0                       # What write queue length does an incoming req see
system.mem_ctrls.wrQLenPdf::125                     0                       # What write queue length does an incoming req see
system.mem_ctrls.wrQLenPdf::126                     0                       # What write queue length does an incoming req see
system.mem_ctrls.wrQLenPdf::127                     0                       # What write queue length does an incoming req see
system.mem_ctrls.bytesPerActivate::samples       595861                       # Bytes accessed per row activation
system.mem_ctrls.bytesPerActivate::mean    146.076269                       # Bytes accessed per row activation
system.mem_ctrls.bytesPerActivate::gmean    93.729683                       # Bytes accessed per row activation
system.mem_ctrls.bytesPerActivate::stdev   232.109180                       # Bytes accessed per row activation
system.mem_ctrls.bytesPerActivate::0-127       395019     66.29%     66.29% # Bytes accessed per row activation
system.mem_ctrls.bytesPerActivate::128-255       155989     26.18%     92.47% # Bytes accessed per row activation
system.mem_ctrls.bytesPerActivate::256-383         2029      0.34%     92.81% # Bytes accessed per row activation
system.mem_ctrls.bytesPerActivate::384-511         1750      0.29%     93.11% # Bytes accessed per row activation
system.mem_ctrls.bytesPerActivate::512-639         1585      0.27%     93.37% # Bytes accessed per row activation
system.mem_ctrls.bytesPerActivate::640-767         1521      0.26%     93.63% # Bytes accessed per row activation
system.mem_ctrls.bytesPerActivate::768-895         1426      0.24%     93.87% # Bytes accessed per row activation
system.mem_ctrls.bytesPerActivate::896-1023         1500      0.25%     94.12% # Bytes accessed per row activation
system.mem_ctrls.bytesPerActivate::1024-1151        35042      5.88%    100.00% # Bytes accessed per row activation
system.mem_ctrls.bytesPerActivate::total       595861                       # Bytes accessed per row activation
system.mem_ctrls.rdPerTurnAround::samples        19585                       # Reads before turning the bus around for writes
system.mem_ctrls.rdPerTurnAround::mean      51.892877                       # Reads before turning the bus around for writes
system.mem_ctrls.rdPerTurnAround::gmean     28.446829                       # Reads before turning the bus around for writes
system.mem_ctrls.rdPerTurnAround::stdev    709.894133                       # Reads before turning the bus around for writes
system.mem_ctrls.rdPerTurnAround::0-2047        19584     99.99%     99.99% # Reads before turning the bus around for writes
system.mem_ctrls.rdPerTurnAround::98304-100351            1      0.01%    100.00% # Reads before turning the bus around for writes
system.mem_ctrls.rdPerTurnAround::total         19585                       # Reads before turning the bus around for writes
system.mem_ctrls.wrPerTurnAround::samples        19585                       # Writes before turning the bus around for reads
system.mem_ctrls.wrPerTurnAround::mean      17.544141                       # Writes before turning the bus around for reads
system.mem_ctrls.wrPerTurnAround::gmean     17.522231                       # Writes before turning the bus around for reads
system.mem_ctrls.wrPerTurnAround::stdev      0.859340                       # Writes before turning the bus around for reads
system.mem_ctrls.wrPerTurnAround::16             4562     23.29%     23.29% # Writes before turning the bus around for reads
system.mem_ctrls.wrPerTurnAround::17               36      0.18%     23.48% # Writes before turning the bus around for reads
system.mem_ctrls.wrPerTurnAround::18            14763     75.38%     98.86% # Writes before turning the bus around for reads
system.mem_ctrls.wrPerTurnAround::19              216      1.10%     99.96% # Writes before turning the bus around for reads
system.mem_ctrls.wrPerTurnAround::20                8      0.04%    100.00% # Writes before turning the bus around for reads
system.mem_ctrls.wrPerTurnAround::total         19585                       # Writes before turning the bus around for reads
system.mem_ctrls.masterReadBytes::.cpu0.inst        29248                       # Per-master bytes read from memory
system.mem_ctrls.masterReadBytes::.cpu0.data     22238464                       # Per-master bytes read from memory
system.mem_ctrls.masterReadBytes::.cpu1.inst       197184                       # Per-master bytes read from memory
system.mem_ctrls.masterReadBytes::.cpu1.data     42585728                       # Per-master bytes read from memory
system.mem_ctrls.masterWriteBytes::.writebacks     21990528                       # Per-master bytes write to memory
system.mem_ctrls.masterReadRate::.cpu0.inst 12462.135172886228                       # Per-master bytes read from memory rate (Bytes/sec)
system.mem_ctrls.masterReadRate::.cpu0.data 9475476.764406597242                       # Per-master bytes read from memory rate (Bytes/sec)
system.mem_ctrls.masterReadRate::.cpu1.inst 84017.152008014149                       # Per-master bytes read from memory rate (Bytes/sec)
system.mem_ctrls.masterReadRate::.cpu1.data 18145141.506146263331                       # Per-master bytes read from memory rate (Bytes/sec)
system.mem_ctrls.masterWriteRate::.writebacks 9369834.944582173601                       # Per-master bytes write to memory rate (Bytes/sec)
system.mem_ctrls.masterReadAccesses::.cpu0.inst          457                       # Per-master read serviced memory accesses
system.mem_ctrls.masterReadAccesses::.cpu0.data       347476                       # Per-master read serviced memory accesses
system.mem_ctrls.masterReadAccesses::.cpu1.inst         3081                       # Per-master read serviced memory accesses
system.mem_ctrls.masterReadAccesses::.cpu1.data       665478                       # Per-master read serviced memory accesses
system.mem_ctrls.masterWriteAccesses::.writebacks       343658                       # Per-master write serviced memory accesses
system.mem_ctrls.masterReadTotalLat::.cpu0.inst     14240167                       # Per-master read total memory access latency
system.mem_ctrls.masterReadTotalLat::.cpu0.data  13101124571                       # Per-master read total memory access latency
system.mem_ctrls.masterReadTotalLat::.cpu1.inst    123189216                       # Per-master read total memory access latency
system.mem_ctrls.masterReadTotalLat::.cpu1.data  24014645716                       # Per-master read total memory access latency
system.mem_ctrls.masterWriteTotalLat::.writebacks 120516808620552                       # Per-master write total memory access latency
system.mem_ctrls.masterReadAvgLat::.cpu0.inst     31160.10                       # Per-master read average memory access latency
system.mem_ctrls.masterReadAvgLat::.cpu0.data     37703.68                       # Per-master read average memory access latency
system.mem_ctrls.masterReadAvgLat::.cpu1.inst     39983.52                       # Per-master read average memory access latency
system.mem_ctrls.masterReadAvgLat::.cpu1.data     36086.31                       # Per-master read average memory access latency
system.mem_ctrls.masterWriteAvgLat::.writebacks 350688209.27                       # Per-master write average memory access latency
system.mem_ctrls.totQLat                  19474050998                       # Total ticks spent queuing
system.mem_ctrls.totMemAccLat             37253199670                       # Total ticks spent from burst creation until serviced by the DRAM
system.mem_ctrls.totBusLat                 3386698112                       # Total ticks spent in databus transfers
system.mem_ctrls.avgQLat                     19159.53                       # Average queueing delay per DRAM burst
system.mem_ctrls.avgBusLat                    3332.00                       # Average bus latency per DRAM burst
system.mem_ctrls.avgMemAccLat                36651.53                       # Average memory access latency per DRAM burst
system.mem_ctrls.avgRdBW                        27.72                       # Average DRAM read bandwidth in MiByte/s
system.mem_ctrls.avgWrBW                         9.37                       # Average achieved write bandwidth in MiByte/s
system.mem_ctrls.avgRdBWSys                     27.72                       # Average system read bandwidth in MiByte/s
system.mem_ctrls.avgWrBWSys                      9.37                       # Average system write bandwidth in MiByte/s
system.mem_ctrls.peakBW                      19207.00                       # Theoretical peak bandwidth in MiByte/s
system.mem_ctrls.busUtil                         0.19                       # Data bus utilization in percentage
system.mem_ctrls.busUtilRead                     0.14                       # Data bus utilization in percentage for reads
system.mem_ctrls.busUtilWrite                    0.05                       # Data bus utilization in percentage for writes
system.mem_ctrls.avgRdQLen                       1.00                       # Average read queue length when enqueuing
system.mem_ctrls.avgWrQLen                      55.83                       # Average write queue length when enqueuing
system.mem_ctrls.readRowHits                   746764                       # Number of row buffer hits during reads
system.mem_ctrls.writeRowHits                   17393                       # Number of row buffer hits during writes
system.mem_ctrls.readRowHitRate                 73.47                       # Row buffer hit rate for reads
system.mem_ctrls.writeRowHitRate                 5.06                       # Row buffer hit rate for writes
system.mem_ctrls.avgGap                    1723502.01                       # Average gap between requests
system.mem_ctrls.pageHitRate                    56.18                       # Row buffer hit rate, read and write combined
system.mem_ctrls_0.actEnergy             464215319.567358                       # Energy for activate commands per rank (pJ)
system.mem_ctrls_0.preEnergy             819518583.390703                       # Energy for precharge commands per rank (pJ)
system.mem_ctrls_0.readEnergy            1391970852.856984                       # Energy for read commands per rank (pJ)
system.mem_ctrls_0.writeEnergy           405269307.408014                       # Energy for write commands per rank (pJ)
system.mem_ctrls_0.refreshEnergy         83904087205.140091                       # Energy for refresh commands per rank (pJ)
system.mem_ctrls_0.actBackEnergy         48045243184.366562                       # Energy for active background per rank (pJ)
system.mem_ctrls_0.preBackEnergy         2444010964.415127                       # Energy for precharge background per rank (pJ)
system.mem_ctrls_0.actPowerDownEnergy    204525822973.575867                       # Energy for active power-down per rank (pJ)
system.mem_ctrls_0.prePowerDownEnergy    68394479460.701050                       # Energy for precharge power-down per rank (pJ)
system.mem_ctrls_0.selfRefreshEnergy     402938936157.508240                       # Energy for self refresh per rank (pJ)
system.mem_ctrls_0.totalEnergy           813570269147.039307                       # Total energy per rank (pJ)
system.mem_ctrls_0.averagePower            346.650119                       # Core power per rank (mW)
system.mem_ctrls_0.totalIdleTime         2234619204557                       # Total Idle time Per DRAM Rank
system.mem_ctrls_0.memoryStateTime::IDLE   4553875010                       # Time in different power states
system.mem_ctrls_0.memoryStateTime::REF   43450750000                       # Time in different power states
system.mem_ctrls_0.memoryStateTime::SREF 1376549645860                       # Time in different power states
system.mem_ctrls_0.memoryStateTime::PRE_PDN 284976992101                       # Time in different power states
system.mem_ctrls_0.memoryStateTime::ACT   61613365113                       # Time in different power states
system.mem_ctrls_0.memoryStateTime::ACT_PDN 575804718416                       # Time in different power states
system.mem_ctrls_1.actEnergy             464956023.167355                       # Energy for activate commands per rank (pJ)
system.mem_ctrls_1.preEnergy             820826210.130705                       # Energy for precharge commands per rank (pJ)
system.mem_ctrls_1.readEnergy            1395959032.946601                       # Energy for read commands per rank (pJ)
system.mem_ctrls_1.writeEnergy           405307052.304014                       # Energy for write commands per rank (pJ)
system.mem_ctrls_1.refreshEnergy         83628338140.900711                       # Energy for refresh commands per rank (pJ)
system.mem_ctrls_1.actBackEnergy         47856683258.519081                       # Energy for active background per rank (pJ)
system.mem_ctrls_1.preBackEnergy         2413248650.264912                       # Energy for precharge background per rank (pJ)
system.mem_ctrls_1.actPowerDownEnergy    204198017228.346039                       # Energy for active power-down per rank (pJ)
system.mem_ctrls_1.prePowerDownEnergy    67950969935.501320                       # Energy for precharge power-down per rank (pJ)
system.mem_ctrls_1.selfRefreshEnergy     403696132929.600220                       # Energy for self refresh per rank (pJ)
system.mem_ctrls_1.totalEnergy           813056656532.307739                       # Total energy per rank (pJ)
system.mem_ctrls_1.averagePower            346.431276                       # Core power per rank (mW)
system.mem_ctrls_1.totalIdleTime         2094907764225                       # Total Idle time Per DRAM Rank
system.mem_ctrls_1.memoryStateTime::IDLE   4445990160                       # Time in different power states
system.mem_ctrls_1.memoryStateTime::REF   43307950000                       # Time in different power states
system.mem_ctrls_1.memoryStateTime::SREF 1379836296580                       # Time in different power states
system.mem_ctrls_1.memoryStateTime::PRE_PDN 283129244688                       # Time in different power states
system.mem_ctrls_1.memoryStateTime::ACT   61348176455                       # Time in different power states
system.mem_ctrls_1.memoryStateTime::ACT_PDN 574881688617                       # Time in different power states
system.pwrStateResidencyTicks::UNDEFINED 2346949346500                       # Cumulative time (in ticks) in various power states
system.cpu_voltage_domain.voltage                   1                       # Voltage in Volts
system.cpu_clk_domain.clock                       500                       # Clock period in ticks
system.cpu0.dtb.walker.pwrStateResidencyTicks::UNDEFINED 2346949346500                       # Cumulative time (in ticks) in various power states
system.cpu0.dtb.rdAccesses                   11113130                       # TLB accesses on read requests
system.cpu0.dtb.wrAccesses                    5557434                       # TLB accesses on write requests
system.cpu0.dtb.rdMisses                         5446                       # TLB misses on read requests
system.cpu0.dtb.wrMisses                            8                       # TLB misses on write requests
system.cpu0.apic_clk_domain.clock                8000                       # Clock period in ticks
system.cpu0.interrupts.pwrStateResidencyTicks::UNDEFINED 2346949346500                       # Cumulative time (in ticks) in various power states
system.cpu0.itb.walker.pwrStateResidencyTicks::UNDEFINED 2346949346500                       # Cumulative time (in ticks) in various power states
system.cpu0.itb.rdAccesses                          0                       # TLB accesses on read requests
system.cpu0.itb.wrAccesses                   38902845                       # TLB accesses on write requests
system.cpu0.itb.rdMisses                            0                       # TLB misses on read requests
system.cpu0.itb.wrMisses                           46                       # TLB misses on write requests
system.cpu0.workload.numSyscalls                   12                       # Number of system calls
system.cpu0.pwrStateResidencyTicks::ON   2346949346500                       # Cumulative time (in ticks) in various power states
system.cpu0.numCycles                       173978639                       # number of cpu cycles simulated
system.cpu0.numWorkItemsStarted                     0                       # number of work items this cpu started
system.cpu0.numWorkItemsCompleted                   0                       # number of work items this cpu completed
system.cpu0.committedInsts                   27788477                       # Number of instructions committed
system.cpu0.committedOps                     52798458                       # Number of ops (including micro ops) committed
system.cpu0.num_int_alu_accesses             52797624                       # Number of integer alu accesses
system.cpu0.num_fp_alu_accesses                  1230                       # Number of float alu accesses
system.cpu0.num_vec_alu_accesses                    0                       # Number of vector alu accesses
system.cpu0.num_func_calls                        390                       # number of times a function call or return occured
system.cpu0.num_conditional_control_insts      2779550                       # number of instructions that are conditional controls
system.cpu0.num_int_insts                    52797624                       # number of integer instructions
system.cpu0.num_fp_insts                         1230                       # number of float instructions
system.cpu0.num_vec_insts                           0                       # number of vector instructions
system.cpu0.num_int_register_reads          105593895                       # number of times the integer registers were read
system.cpu0.num_int_register_writes          44460024                       # number of times the integer registers were written
system.cpu0.num_fp_register_reads                1409                       # number of times the floating registers were read
system.cpu0.num_fp_register_writes                687                       # number of times the floating registers were written
system.cpu0.num_vec_register_reads                  0                       # number of times the vector registers were read
system.cpu0.num_vec_register_writes                 0                       # number of times the vector registers were written
system.cpu0.num_cc_register_reads            13900419                       # number of times the CC registers were read
system.cpu0.num_cc_register_writes           16673169                       # number of times the CC registers were written
system.cpu0.num_mem_refs                     16670560                       # number of memory refs
system.cpu0.num_load_insts                   11113127                       # Number of load instructions
system.cpu0.num_store_insts                   5557433                       # Number of store instructions
system.cpu0.num_idle_cycles              167530147.285976                       # Number of idle cycles
system.cpu0.num_busy_cycles              6448491.714024                       # Number of busy cycles
system.cpu0.not_idle_fraction                0.037065                       # Percentage of non-idle cycles
system.cpu0.idle_fraction                    0.962935                       # Percentage of idle cycles
system.cpu0.Branches                          2780111                       # Number of branches fetched
system.cpu0.op_class::No_OpClass                  340      0.00%      0.00% # Class of executed instruction
system.cpu0.op_class::IntAlu                 36126995     68.42%     68.42% # Class of executed instruction
system.cpu0.op_class::IntMult                       5      0.00%     68.42% # Class of executed instruction
system.cpu0.op_class::IntDiv                       28      0.00%     68.43% # Class of executed instruction
system.cpu0.op_class::FloatAdd                    144      0.00%     68.43% # Class of executed instruction
system.cpu0.op_class::FloatCmp                      0      0.00%     68.43% # Class of executed instruction
system.cpu0.op_class::FloatCvt                      0      0.00%     68.43% # Class of executed instruction
system.cpu0.op_class::FloatMult                     0      0.00%     68.43% # Class of executed instruction
system.cpu0.op_class::FloatMultAcc                  0      0.00%     68.43% # Class of executed instruction
system.cpu0.op_class::FloatDiv                      0      0.00%     68.43% # Class of executed instruction
system.cpu0.op_class::FloatMisc                     0      0.00%     68.43% # Class of executed instruction
system.cpu0.op_class::FloatSqrt                     0      0.00%     68.43% # Class of executed instruction
system.cpu0.op_class::SimdAdd                       0      0.00%     68.43% # Class of executed instruction
system.cpu0.op_class::SimdAddAcc                    0      0.00%     68.43% # Class of executed instruction
system.cpu0.op_class::SimdAlu                     104      0.00%     68.43% # Class of executed instruction
system.cpu0.op_class::SimdCmp                       0      0.00%     68.43% # Class of executed instruction
system.cpu0.op_class::SimdCvt                      54      0.00%     68.43% # Class of executed instruction
system.cpu0.op_class::SimdMisc                    228      0.00%     68.43% # Class of executed instruction
system.cpu0.op_class::SimdMult                      0      0.00%     68.43% # Class of executed instruction
system.cpu0.op_class::SimdMultAcc                   0      0.00%     68.43% # Class of executed instruction
system.cpu0.op_class::SimdShift                     0      0.00%     68.43% # Class of executed instruction
system.cpu0.op_class::SimdShiftAcc                  0      0.00%     68.43% # Class of executed instruction
system.cpu0.op_class::SimdSqrt                      0      0.00%     68.43% # Class of executed instruction
system.cpu0.op_class::SimdFloatAdd                  0      0.00%     68.43% # Class of executed instruction
system.cpu0.op_class::SimdFloatAlu                  0      0.00%     68.43% # Class of executed instruction
system.cpu0.op_class::SimdFloatCmp                  0      0.00%     68.43% # Class of executed instruction
system.cpu0.op_class::SimdFloatCvt                  0      0.00%     68.43% # Class of executed instruction
system.cpu0.op_class::SimdFloatDiv                  0      0.00%     68.43% # Class of executed instruction
system.cpu0.op_class::SimdFloatMisc                 0      0.00%     68.43% # Class of executed instruction
system.cpu0.op_class::SimdFloatMult                 0      0.00%     68.43% # Class of executed instruction
system.cpu0.op_class::SimdFloatMultAcc              0      0.00%     68.43% # Class of executed instruction
system.cpu0.op_class::SimdFloatSqrt                 0      0.00%     68.43% # Class of executed instruction
system.cpu0.op_class::MemRead                11113059     21.05%     89.47% # Class of executed instruction
system.cpu0.op_class::MemWrite                5556944     10.52%    100.00% # Class of executed instruction
system.cpu0.op_class::FloatMemRead                 68      0.00%    100.00% # Class of executed instruction
system.cpu0.op_class::FloatMemWrite               489      0.00%    100.00% # Class of executed instruction
system.cpu0.op_class::IprAccess                     0      0.00%    100.00% # Class of executed instruction
system.cpu0.op_class::InstPrefetch                  0      0.00%    100.00% # Class of executed instruction
system.cpu0.op_class::total                  52798458                       # Class of executed instruction
system.cpu0.dcache.tags.pwrStateResidencyTicks::UNDEFINED 2346949346500                       # Cumulative time (in ticks) in various power states
system.cpu0.dcache.tags.tagsinuse            7.999997                       # Cycle average of tags in use
system.cpu0.dcache.tags.total_refs           16670564                       # Total number of references to valid blocks.
system.cpu0.dcache.tags.sampled_refs           347954                       # Sample count of references to valid blocks.
system.cpu0.dcache.tags.avg_refs            47.910253                       # Average number of references to valid blocks.
system.cpu0.dcache.tags.warmup_cycle           182500                       # Cycle when the warmup percentage was hit.
system.cpu0.dcache.tags.occ_blocks::.cpu0.data     7.999997                       # Average occupied blocks per requestor
system.cpu0.dcache.tags.occ_percent::.cpu0.data     1.000000                       # Average percentage of cache occupancy
system.cpu0.dcache.tags.occ_percent::total     1.000000                       # Average percentage of cache occupancy
system.cpu0.dcache.tags.occ_task_id_blocks::1024            8                       # Occupied blocks per task id
system.cpu0.dcache.tags.age_task_id_blocks_1024::4            8                       # Occupied blocks per task id
system.cpu0.dcache.tags.occ_task_id_percent::1024            1                       # Percentage of cache occupancy per task id
system.cpu0.dcache.tags.tag_accesses        133712466                       # Number of tag accesses
system.cpu0.dcache.tags.data_accesses       133712466                       # Number of data accesses
system.cpu0.dcache.pwrStateResidencyTicks::UNDEFINED 2346949346500                       # Cumulative time (in ticks) in various power states
system.cpu0.dcache.ReadReq_hits::.cpu0.data     10765440                       # number of ReadReq hits
system.cpu0.dcache.ReadReq_hits::total       10765440                       # number of ReadReq hits
system.cpu0.dcache.WriteReq_hits::.cpu0.data      5557170                       # number of WriteReq hits
system.cpu0.dcache.WriteReq_hits::total       5557170                       # number of WriteReq hits
system.cpu0.dcache.demand_hits::.cpu0.data     16322610                       # number of demand (read+write) hits
system.cpu0.dcache.demand_hits::total        16322610                       # number of demand (read+write) hits
system.cpu0.dcache.overall_hits::.cpu0.data     16322610                       # number of overall hits
system.cpu0.dcache.overall_hits::total       16322610                       # number of overall hits
system.cpu0.dcache.ReadReq_misses::.cpu0.data       347690                       # number of ReadReq misses
system.cpu0.dcache.ReadReq_misses::total       347690                       # number of ReadReq misses
system.cpu0.dcache.WriteReq_misses::.cpu0.data          264                       # number of WriteReq misses
system.cpu0.dcache.WriteReq_misses::total          264                       # number of WriteReq misses
system.cpu0.dcache.demand_misses::.cpu0.data       347954                       # number of demand (read+write) misses
system.cpu0.dcache.demand_misses::total        347954                       # number of demand (read+write) misses
system.cpu0.dcache.overall_misses::.cpu0.data       347954                       # number of overall misses
system.cpu0.dcache.overall_misses::total       347954                       # number of overall misses
system.cpu0.dcache.ReadReq_miss_latency::.cpu0.data  31711506000                       # number of ReadReq miss cycles
system.cpu0.dcache.ReadReq_miss_latency::total  31711506000                       # number of ReadReq miss cycles
system.cpu0.dcache.WriteReq_miss_latency::.cpu0.data     14127000                       # number of WriteReq miss cycles
system.cpu0.dcache.WriteReq_miss_latency::total     14127000                       # number of WriteReq miss cycles
system.cpu0.dcache.demand_miss_latency::.cpu0.data  31725633000                       # number of demand (read+write) miss cycles
system.cpu0.dcache.demand_miss_latency::total  31725633000                       # number of demand (read+write) miss cycles
system.cpu0.dcache.overall_miss_latency::.cpu0.data  31725633000                       # number of overall miss cycles
system.cpu0.dcache.overall_miss_latency::total  31725633000                       # number of overall miss cycles
system.cpu0.dcache.ReadReq_accesses::.cpu0.data     11113130                       # number of ReadReq accesses(hits+misses)
system.cpu0.dcache.ReadReq_accesses::total     11113130                       # number of ReadReq accesses(hits+misses)
system.cpu0.dcache.WriteReq_accesses::.cpu0.data      5557434                       # number of WriteReq accesses(hits+misses)
system.cpu0.dcache.WriteReq_accesses::total      5557434                       # number of WriteReq accesses(hits+misses)
system.cpu0.dcache.demand_accesses::.cpu0.data     16670564                       # number of demand (read+write) accesses
system.cpu0.dcache.demand_accesses::total     16670564                       # number of demand (read+write) accesses
system.cpu0.dcache.overall_accesses::.cpu0.data     16670564                       # number of overall (read+write) accesses
system.cpu0.dcache.overall_accesses::total     16670564                       # number of overall (read+write) accesses
system.cpu0.dcache.ReadReq_miss_rate::.cpu0.data     0.031286                       # miss rate for ReadReq accesses
system.cpu0.dcache.ReadReq_miss_rate::total     0.031286                       # miss rate for ReadReq accesses
system.cpu0.dcache.WriteReq_miss_rate::.cpu0.data     0.000048                       # miss rate for WriteReq accesses
system.cpu0.dcache.WriteReq_miss_rate::total     0.000048                       # miss rate for WriteReq accesses
system.cpu0.dcache.demand_miss_rate::.cpu0.data     0.020872                       # miss rate for demand accesses
system.cpu0.dcache.demand_miss_rate::total     0.020872                       # miss rate for demand accesses
system.cpu0.dcache.overall_miss_rate::.cpu0.data     0.020872                       # miss rate for overall accesses
system.cpu0.dcache.overall_miss_rate::total     0.020872                       # miss rate for overall accesses
system.cpu0.dcache.ReadReq_avg_miss_latency::.cpu0.data 91206.264201                       # average ReadReq miss latency
system.cpu0.dcache.ReadReq_avg_miss_latency::total 91206.264201                       # average ReadReq miss latency
system.cpu0.dcache.WriteReq_avg_miss_latency::.cpu0.data 53511.363636                       # average WriteReq miss latency
system.cpu0.dcache.WriteReq_avg_miss_latency::total 53511.363636                       # average WriteReq miss latency
system.cpu0.dcache.demand_avg_miss_latency::.cpu0.data 91177.664289                       # average overall miss latency
system.cpu0.dcache.demand_avg_miss_latency::total 91177.664289                       # average overall miss latency
system.cpu0.dcache.overall_avg_miss_latency::.cpu0.data 91177.664289                       # average overall miss latency
system.cpu0.dcache.overall_avg_miss_latency::total 91177.664289                       # average overall miss latency
system.cpu0.dcache.blocked_cycles::no_mshrs            0                       # number of cycles access was blocked
system.cpu0.dcache.blocked_cycles::no_targets            0                       # number of cycles access was blocked
system.cpu0.dcache.blocked::no_mshrs                0                       # number of cycles access was blocked
system.cpu0.dcache.blocked::no_targets              0                       # number of cycles access was blocked
system.cpu0.dcache.avg_blocked_cycles::no_mshrs          nan                       # average number of cycles each access was blocked
system.cpu0.dcache.avg_blocked_cycles::no_targets          nan                       # average number of cycles each access was blocked
system.cpu0.dcache.writebacks::.writebacks          553                       # number of writebacks
system.cpu0.dcache.writebacks::total              553                       # number of writebacks
system.cpu0.dcache.ReadReq_mshr_misses::.cpu0.data       347690                       # number of ReadReq MSHR misses
system.cpu0.dcache.ReadReq_mshr_misses::total       347690                       # number of ReadReq MSHR misses
system.cpu0.dcache.WriteReq_mshr_misses::.cpu0.data          264                       # number of WriteReq MSHR misses
system.cpu0.dcache.WriteReq_mshr_misses::total          264                       # number of WriteReq MSHR misses
system.cpu0.dcache.demand_mshr_misses::.cpu0.data       347954                       # number of demand (read+write) MSHR misses
system.cpu0.dcache.demand_mshr_misses::total       347954                       # number of demand (read+write) MSHR misses
system.cpu0.dcache.overall_mshr_misses::.cpu0.data       347954                       # number of overall MSHR misses
system.cpu0.dcache.overall_mshr_misses::total       347954                       # number of overall MSHR misses
system.cpu0.dcache.ReadReq_mshr_miss_latency::.cpu0.data  31363816000                       # number of ReadReq MSHR miss cycles
system.cpu0.dcache.ReadReq_mshr_miss_latency::total  31363816000                       # number of ReadReq MSHR miss cycles
system.cpu0.dcache.WriteReq_mshr_miss_latency::.cpu0.data     13863000                       # number of WriteReq MSHR miss cycles
system.cpu0.dcache.WriteReq_mshr_miss_latency::total     13863000                       # number of WriteReq MSHR miss cycles
system.cpu0.dcache.demand_mshr_miss_latency::.cpu0.data  31377679000                       # number of demand (read+write) MSHR miss cycles
system.cpu0.dcache.demand_mshr_miss_latency::total  31377679000                       # number of demand (read+write) MSHR miss cycles
system.cpu0.dcache.overall_mshr_miss_latency::.cpu0.data  31377679000                       # number of overall MSHR miss cycles
system.cpu0.dcache.overall_mshr_miss_latency::total  31377679000                       # number of overall MSHR miss cycles
system.cpu0.dcache.ReadReq_mshr_miss_rate::.cpu0.data     0.031286                       # mshr miss rate for ReadReq accesses
system.cpu0.dcache.ReadReq_mshr_miss_rate::total     0.031286                       # mshr miss rate for ReadReq accesses
system.cpu0.dcache.WriteReq_mshr_miss_rate::.cpu0.data     0.000048                       # mshr miss rate for WriteReq accesses
system.cpu0.dcache.WriteReq_mshr_miss_rate::total     0.000048                       # mshr miss rate for WriteReq accesses
system.cpu0.dcache.demand_mshr_miss_rate::.cpu0.data     0.020872                       # mshr miss rate for demand accesses
system.cpu0.dcache.demand_mshr_miss_rate::total     0.020872                       # mshr miss rate for demand accesses
system.cpu0.dcache.overall_mshr_miss_rate::.cpu0.data     0.020872                       # mshr miss rate for overall accesses
system.cpu0.dcache.overall_mshr_miss_rate::total     0.020872                       # mshr miss rate for overall accesses
system.cpu0.dcache.ReadReq_avg_mshr_miss_latency::.cpu0.data 90206.264201                       # average ReadReq mshr miss latency
system.cpu0.dcache.ReadReq_avg_mshr_miss_latency::total 90206.264201                       # average ReadReq mshr miss latency
system.cpu0.dcache.WriteReq_avg_mshr_miss_latency::.cpu0.data 52511.363636                       # average WriteReq mshr miss latency
system.cpu0.dcache.WriteReq_avg_mshr_miss_latency::total 52511.363636                       # average WriteReq mshr miss latency
system.cpu0.dcache.demand_avg_mshr_miss_latency::.cpu0.data 90177.664289                       # average overall mshr miss latency
system.cpu0.dcache.demand_avg_mshr_miss_latency::total 90177.664289                       # average overall mshr miss latency
system.cpu0.dcache.overall_avg_mshr_miss_latency::.cpu0.data 90177.664289                       # average overall mshr miss latency
system.cpu0.dcache.overall_avg_mshr_miss_latency::total 90177.664289                       # average overall mshr miss latency
system.cpu0.dcache.replacements                347946                       # number of replacements
system.cpu0.dtb_walker_cache.tags.pwrStateResidencyTicks::UNDEFINED 2346949346500                       # Cumulative time (in ticks) in various power states
system.cpu0.dtb_walker_cache.tags.tagsinuse            0                       # Cycle average of tags in use
system.cpu0.dtb_walker_cache.tags.total_refs            0                       # Total number of references to valid blocks.
system.cpu0.dtb_walker_cache.tags.sampled_refs            0                       # Sample count of references to valid blocks.
system.cpu0.dtb_walker_cache.tags.avg_refs          nan                       # Average number of references to valid blocks.
system.cpu0.dtb_walker_cache.tags.warmup_cycle            0                       # Cycle when the warmup percentage was hit.
system.cpu0.dtb_walker_cache.tags.tag_accesses            0                       # Number of tag accesses
system.cpu0.dtb_walker_cache.tags.data_accesses            0                       # Number of data accesses
system.cpu0.dtb_walker_cache.pwrStateResidencyTicks::UNDEFINED 2346949346500                       # Cumulative time (in ticks) in various power states
system.cpu0.dtb_walker_cache.blocked_cycles::no_mshrs            0                       # number of cycles access was blocked
system.cpu0.dtb_walker_cache.blocked_cycles::no_targets            0                       # number of cycles access was blocked
system.cpu0.dtb_walker_cache.blocked::no_mshrs            0                       # number of cycles access was blocked
system.cpu0.dtb_walker_cache.blocked::no_targets            0                       # number of cycles access was blocked
system.cpu0.dtb_walker_cache.avg_blocked_cycles::no_mshrs          nan                       # average number of cycles each access was blocked
system.cpu0.dtb_walker_cache.avg_blocked_cycles::no_targets          nan                       # average number of cycles each access was blocked
system.cpu0.dtb_walker_cache.replacements            0                       # number of replacements
system.cpu0.icache.tags.pwrStateResidencyTicks::UNDEFINED 2346949346500                       # Cumulative time (in ticks) in various power states
system.cpu0.icache.tags.tagsinuse          433.030028                       # Cycle average of tags in use
system.cpu0.icache.tags.total_refs           38902845                       # Total number of references to valid blocks.
system.cpu0.icache.tags.sampled_refs              457                       # Sample count of references to valid blocks.
system.cpu0.icache.tags.avg_refs         85126.575492                       # Average number of references to valid blocks.
system.cpu0.icache.tags.warmup_cycle            87500                       # Cycle when the warmup percentage was hit.
[...]
system.l2.ReadCleanReq_mshr_misses::.cpu1.inst         3081                       # number of ReadCleanReq MSHR misses
system.l2.ReadCleanReq_mshr_misses::total         3538                       # number of ReadCleanReq MSHR misses
system.l2.ReadSharedReq_mshr_misses::.cpu0.data       347349                       # number of ReadSharedReq MSHR misses
system.l2.ReadSharedReq_mshr_misses::.cpu1.data       289169                       # number of ReadSharedReq MSHR misses
system.l2.ReadSharedReq_mshr_misses::total       636518                       # number of ReadSharedReq MSHR misses
system.l2.demand_mshr_misses::.cpu0.inst          457                       # number of demand (read+write) MSHR misses
system.l2.demand_mshr_misses::.cpu0.data       347476                       # number of demand (read+write) MSHR misses
system.l2.demand_mshr_misses::.cpu1.inst         3081                       # number of demand (read+write) MSHR misses
system.l2.demand_mshr_misses::.cpu1.data       665478                       # number of demand (read+write) MSHR misses
system.l2.demand_mshr_misses::total           1016492                       # number of demand (read+write) MSHR misses
system.l2.overall_mshr_misses::.cpu0.inst          457                       # number of overall MSHR misses
system.l2.overall_mshr_misses::.cpu0.data       347476                       # number of overall MSHR misses
system.l2.overall_mshr_misses::.cpu1.inst         3081                       # number of overall MSHR misses
system.l2.overall_mshr_misses::.cpu1.data       665478                       # number of overall MSHR misses
system.l2.overall_mshr_misses::total          1016492                       # number of overall MSHR misses
system.l2.ReadExReq_mshr_miss_latency::.cpu0.data     10754500                       # number of ReadExReq MSHR miss cycles
system.l2.ReadExReq_mshr_miss_latency::.cpu1.data  29385392000                       # number of ReadExReq MSHR miss cycles
system.l2.ReadExReq_mshr_miss_latency::total  29396146500                       # number of ReadExReq MSHR miss cycles
system.l2.ReadCleanReq_mshr_miss_latency::.cpu0.inst     32988500                       # number of ReadCleanReq MSHR miss cycles
system.l2.ReadCleanReq_mshr_miss_latency::.cpu1.inst    249737500                       # number of ReadCleanReq MSHR miss cycles
system.l2.ReadCleanReq_mshr_miss_latency::total    282726000                       # number of ReadCleanReq MSHR miss cycles
system.l2.ReadSharedReq_mshr_miss_latency::.cpu0.data  27350576000                       # number of ReadSharedReq MSHR miss cycles
system.l2.ReadSharedReq_mshr_miss_latency::.cpu1.data  21933500000                       # number of ReadSharedReq MSHR miss cycles
system.l2.ReadSharedReq_mshr_miss_latency::total  49284076000                       # number of ReadSharedReq MSHR miss cycles
system.l2.demand_mshr_miss_latency::.cpu0.inst     32988500                       # number of demand (read+write) MSHR miss cycles
system.l2.demand_mshr_miss_latency::.cpu0.data  27361330500                       # number of demand (read+write) MSHR miss cycles
system.l2.demand_mshr_miss_latency::.cpu1.inst    249737500                       # number of demand (read+write) MSHR miss cycles
system.l2.demand_mshr_miss_latency::.cpu1.data  51318892000                       # number of demand (read+write) MSHR miss cycles
system.l2.demand_mshr_miss_latency::total  78962948500                       # number of demand (read+write) MSHR miss cycles
system.l2.overall_mshr_miss_latency::.cpu0.inst     32988500                       # number of overall MSHR miss cycles
system.l2.overall_mshr_miss_latency::.cpu0.data  27361330500                       # number of overall MSHR miss cycles
system.l2.overall_mshr_miss_latency::.cpu1.inst    249737500                       # number of overall MSHR miss cycles
system.l2.overall_mshr_miss_latency::.cpu1.data  51318892000                       # number of overall MSHR miss cycles
system.l2.overall_mshr_miss_latency::total  78962948500                       # number of overall MSHR miss cycles
system.l2.CleanEvict_mshr_miss_rate::.writebacks          inf                       # mshr miss rate for CleanEvict accesses
system.l2.CleanEvict_mshr_miss_rate::total          inf                       # mshr miss rate for CleanEvict accesses
system.l2.ReadExReq_mshr_miss_rate::.cpu0.data     0.481061                       # mshr miss rate for ReadExReq accesses
system.l2.ReadExReq_mshr_miss_rate::.cpu1.data     0.043115                       # mshr miss rate for ReadExReq accesses
system.l2.ReadExReq_mshr_miss_rate::total     0.043129                       # mshr miss rate for ReadExReq accesses
system.l2.ReadCleanReq_mshr_miss_rate::.cpu0.inst            1                       # mshr miss rate for ReadCleanReq accesses
system.l2.ReadCleanReq_mshr_miss_rate::.cpu1.inst     0.644830                       # mshr miss rate for ReadCleanReq accesses
system.l2.ReadCleanReq_mshr_miss_rate::total     0.675836                       # mshr miss rate for ReadCleanReq accesses
system.l2.ReadSharedReq_mshr_miss_rate::.cpu0.data     0.999019                       # mshr miss rate for ReadSharedReq accesses
system.l2.ReadSharedReq_mshr_miss_rate::.cpu1.data     0.006166                       # mshr miss rate for ReadSharedReq accesses
system.l2.ReadSharedReq_mshr_miss_rate::total     0.013474                       # mshr miss rate for ReadSharedReq accesses
system.l2.demand_mshr_miss_rate::.cpu0.inst            1                       # mshr miss rate for demand accesses
system.l2.demand_mshr_miss_rate::.cpu0.data     0.998626                       # mshr miss rate for demand accesses
system.l2.demand_mshr_miss_rate::.cpu1.inst     0.644830                       # mshr miss rate for demand accesses
system.l2.demand_mshr_miss_rate::.cpu1.data     0.011964                       # mshr miss rate for demand accesses
system.l2.demand_mshr_miss_rate::total       0.018160                       # mshr miss rate for demand accesses
system.l2.overall_mshr_miss_rate::.cpu0.inst            1                       # mshr miss rate for overall accesses
system.l2.overall_mshr_miss_rate::.cpu0.data     0.998626                       # mshr miss rate for overall accesses
system.l2.overall_mshr_miss_rate::.cpu1.inst     0.644830                       # mshr miss rate for overall accesses
system.l2.overall_mshr_miss_rate::.cpu1.data     0.011964                       # mshr miss rate for overall accesses
system.l2.overall_mshr_miss_rate::total      0.018160                       # mshr miss rate for overall accesses
system.l2.ReadExReq_avg_mshr_miss_latency::.cpu0.data 84681.102362                       # average ReadExReq mshr miss latency
system.l2.ReadExReq_avg_mshr_miss_latency::.cpu1.data 78088.464533                       # average ReadExReq mshr miss latency
system.l2.ReadExReq_avg_mshr_miss_latency::total 78090.688723                       # average ReadExReq mshr miss latency
system.l2.ReadCleanReq_avg_mshr_miss_latency::.cpu0.inst 72184.901532                       # average ReadCleanReq mshr miss latency
system.l2.ReadCleanReq_avg_mshr_miss_latency::.cpu1.inst 81057.286595                       # average ReadCleanReq mshr miss latency
system.l2.ReadCleanReq_avg_mshr_miss_latency::total 79911.249293                       # average ReadCleanReq mshr miss latency
system.l2.ReadSharedReq_avg_mshr_miss_latency::.cpu0.data 78740.908999                       # average ReadSharedReq mshr miss latency
system.l2.ReadSharedReq_avg_mshr_miss_latency::.cpu1.data 75850.108414                       # average ReadSharedReq mshr miss latency
system.l2.ReadSharedReq_avg_mshr_miss_latency::total 77427.623414                       # average ReadSharedReq mshr miss latency
system.l2.demand_avg_mshr_miss_latency::.cpu0.inst 72184.901532                       # average overall mshr miss latency
system.l2.demand_avg_mshr_miss_latency::.cpu0.data 78743.080098                       # average overall mshr miss latency
system.l2.demand_avg_mshr_miss_latency::.cpu1.inst 81057.286595                       # average overall mshr miss latency
system.l2.demand_avg_mshr_miss_latency::.cpu1.data 77115.835535                       # average overall mshr miss latency
system.l2.demand_avg_mshr_miss_latency::total 77681.819926                       # average overall mshr miss latency
system.l2.overall_avg_mshr_miss_latency::.cpu0.inst 72184.901532                       # average overall mshr miss latency
system.l2.overall_avg_mshr_miss_latency::.cpu0.data 78743.080098                       # average overall mshr miss latency
system.l2.overall_avg_mshr_miss_latency::.cpu1.inst 81057.286595                       # average overall mshr miss latency
system.l2.overall_avg_mshr_miss_latency::.cpu1.data 77115.835535                       # average overall mshr miss latency
system.l2.overall_avg_mshr_miss_latency::total 77681.819926                       # average overall mshr miss latency
system.l2.replacements                         914239                       # number of replacements
system.membus.snoop_filter.tot_requests       1929039                       # Total number of requests made to the snoop filter.
system.membus.snoop_filter.hit_single_requests       912547                       # Number of requests hitting in the snoop filter with a single holder of the requested data.
system.membus.snoop_filter.hit_multi_requests            0                       # Number of requests hitting in the snoop filter with multiple (>1) holders of the requested data.
system.membus.snoop_filter.tot_snoops               0                       # Total number of snoops made to the snoop filter.
system.membus.snoop_filter.hit_single_snoops            0                       # Number of snoops hitting in the snoop filter with a single holder of the requested data.
system.membus.snoop_filter.hit_multi_snoops            0                       # Number of snoops hitting in the snoop filter with multiple (>1) holders of the requested data.
system.membus.pwrStateResidencyTicks::UNDEFINED 2346949346500                       # Cumulative time (in ticks) in various power states
system.membus.trans_dist::ReadResp             640056                       # Transaction distribution
system.membus.trans_dist::WritebackDirty       343658                       # Transaction distribution
system.membus.trans_dist::CleanEvict           568889                       # Transaction distribution
system.membus.trans_dist::ReadExReq            376436                       # Transaction distribution
system.membus.trans_dist::ReadExResp           376436                       # Transaction distribution
system.membus.trans_dist::ReadSharedReq        640056                       # Transaction distribution
system.membus.pkt_count_system.l2.mem_side::system.mem_ctrls.port      2945531                       # Packet count per connected master and slave (bytes)
system.membus.pkt_count_system.l2.mem_side::total      2945531                       # Packet count per connected master and slave (bytes)
system.membus.pkt_count::total                2945531                       # Packet count per connected master and slave (bytes)
system.membus.pkt_size_system.l2.mem_side::system.mem_ctrls.port     87049600                       # Cumulative packet size per connected master and slave (bytes)
system.membus.pkt_size_system.l2.mem_side::total     87049600                       # Cumulative packet size per connected master and slave (bytes)
system.membus.pkt_size::total                87049600                       # Cumulative packet size per connected master and slave (bytes)
system.membus.snoops                                0                       # Total snoops (count)
system.membus.snoopTraffic                          0                       # Total snoop traffic (bytes)
system.membus.snoop_fanout::samples           1016492                       # Request fanout histogram
system.membus.snoop_fanout::mean                    0                       # Request fanout histogram
system.membus.snoop_fanout::stdev                   0                       # Request fanout histogram
system.membus.snoop_fanout::underflows              0      0.00%      0.00% # Request fanout histogram
system.membus.snoop_fanout::0                 1016492    100.00%    100.00% # Request fanout histogram
system.membus.snoop_fanout::1                       0      0.00%    100.00% # Request fanout histogram
system.membus.snoop_fanout::overflows               0      0.00%    100.00% # Request fanout histogram
system.membus.snoop_fanout::min_value               0                       # Request fanout histogram
system.membus.snoop_fanout::max_value               0                       # Request fanout histogram
system.membus.snoop_fanout::total             1016492                       # Request fanout histogram
system.membus.reqLayer4.occupancy          3351536000                       # Layer occupancy (ticks)
system.membus.reqLayer4.utilization               0.1                       # Layer utilization (%)
system.membus.respLayer1.occupancy         5548039774                       # Layer occupancy (ticks)
system.membus.respLayer1.utilization              0.2                       # Layer utilization (%)
system.tol2bus.snoop_filter.tot_requests    111949128                       # Total number of requests made to the snoop filter.
system.tol2bus.snoop_filter.hit_single_requests     55974082                       # Number of requests hitting in the snoop filter with a single holder of the requested data.
system.tol2bus.snoop_filter.hit_multi_requests            0                       # Number of requests hitting in the snoop filter with multiple (>1) holders of the requested data.
system.tol2bus.snoop_filter.tot_snoops           2142                       # Total number of snoops made to the snoop filter.
system.tol2bus.snoop_filter.hit_single_snoops         2142                       # Number of snoops hitting in the snoop filter with a single holder of the requested data.
system.tol2bus.snoop_filter.hit_multi_snoops            0                       # Number of snoops hitting in the snoop filter with multiple (>1) holders of the requested data.
system.tol2bus.pwrStateResidencyTicks::UNDEFINED 2346949346500                       # Cumulative time (in ticks) in various power states
system.tol2bus.trans_dist::ReadResp          47246819                       # Transaction distribution
system.tol2bus.trans_dist::WritebackDirty     48133613                       # Transaction distribution
system.tol2bus.trans_dist::WritebackClean         4287                       # Transaction distribution
system.tol2bus.trans_dist::CleanEvict         8750421                       # Transaction distribution
system.tol2bus.trans_dist::ReadExReq          8728227                       # Transaction distribution
system.tol2bus.trans_dist::ReadExResp         8728227                       # Transaction distribution
system.tol2bus.trans_dist::ReadCleanReq          5235                       # Transaction distribution
system.tol2bus.trans_dist::ReadSharedReq     47241584                       # Transaction distribution
system.tol2bus.pkt_count_system.cpu0.icache.mem_side::system.l2.cpu_side          935                       # Packet count per connected master and slave (bytes)
system.tol2bus.pkt_count_system.cpu0.dcache.mem_side::system.l2.cpu_side      1043854                       # Packet count per connected master and slave (bytes)
system.tol2bus.pkt_count_system.cpu1.icache.mem_side::system.l2.cpu_side        13822                       # Packet count per connected master and slave (bytes)
system.tol2bus.pkt_count_system.cpu1.dcache.mem_side::system.l2.cpu_side    166865563                       # Packet count per connected master and slave (bytes)
system.tol2bus.pkt_count::total             167924174                       # Packet count per connected master and slave (bytes)
system.tol2bus.pkt_size_system.cpu0.icache.mem_side::system.l2.cpu_side        30592                       # Cumulative packet size per connected master and slave (bytes)
system.tol2bus.pkt_size_system.cpu0.dcache.mem_side::system.l2.cpu_side     22304448                       # Cumulative packet size per connected master and slave (bytes)
system.tol2bus.pkt_size_system.cpu1.icache.mem_side::system.l2.cpu_side       578816                       # Cumulative packet size per connected master and slave (bytes)
system.tol2bus.pkt_size_system.cpu1.dcache.mem_side::system.l2.cpu_side   6618320576                       # Cumulative packet size per connected master and slave (bytes)
system.tol2bus.pkt_size::total             6641234432                       # Cumulative packet size per connected master and slave (bytes)
system.tol2bus.snoops                          914239                       # Total snoops (count)
system.tol2bus.snoopTraffic                  21994112                       # Total snoop traffic (bytes)
system.tol2bus.snoop_fanout::samples         56889285                       # Request fanout histogram
system.tol2bus.snoop_fanout::mean            0.000038                       # Request fanout histogram
system.tol2bus.snoop_fanout::stdev           0.006136                       # Request fanout histogram
system.tol2bus.snoop_fanout::underflows             0      0.00%      0.00% # Request fanout histogram
system.tol2bus.snoop_fanout::0               56887143    100.00%    100.00% # Request fanout histogram
system.tol2bus.snoop_fanout::1                   2142      0.00%    100.00% # Request fanout histogram
system.tol2bus.snoop_fanout::2                      0      0.00%    100.00% # Request fanout histogram
system.tol2bus.snoop_fanout::3                      0      0.00%    100.00% # Request fanout histogram
system.tol2bus.snoop_fanout::4                      0      0.00%    100.00% # Request fanout histogram
system.tol2bus.snoop_fanout::5                      0      0.00%    100.00% # Request fanout histogram
system.tol2bus.snoop_fanout::6                      0      0.00%    100.00% # Request fanout histogram
system.tol2bus.snoop_fanout::7                      0      0.00%    100.00% # Request fanout histogram
system.tol2bus.snoop_fanout::8                      0      0.00%    100.00% # Request fanout histogram
system.tol2bus.snoop_fanout::overflows              0      0.00%    100.00% # Request fanout histogram
system.tol2bus.snoop_fanout::min_value              0                       # Request fanout histogram
system.tol2bus.snoop_fanout::max_value              1                       # Request fanout histogram
system.tol2bus.snoop_fanout::total           56889285                       # Request fanout histogram
system.tol2bus.reqLayer0.occupancy       103768806000                       # Layer occupancy (ticks)
system.tol2bus.reqLayer0.utilization              4.4                       # Layer utilization (%)
system.tol2bus.respLayer0.occupancy            686498                       # Layer occupancy (ticks)
system.tol2bus.respLayer0.utilization             0.0                       # Layer utilization (%)
system.tol2bus.respLayer1.occupancy         527394052                       # Layer occupancy (ticks)
system.tol2bus.respLayer1.utilization             0.0                       # Layer utilization (%)
system.tol2bus.respLayer4.occupancy           7167499                       # Layer occupancy (ticks)
system.tol2bus.respLayer4.utilization             0.0                       # Layer utilization (%)
system.tol2bus.respLayer5.occupancy       83432785500                       # Layer occupancy (ticks)
system.tol2bus.respLayer5.utilization             3.6                       # Layer utilization (%)

---------- End Simulation Statistics   ----------
