
---------- Begin Simulation Statistics ----------
final_tick                               2142518940063                       # Number of ticks from beginning of simulation (restored from checkpoints and never reset)
host_inst_rate                                 438064                       # Simulator instruction rate (inst/s)
host_mem_usage                               10721036                       # Number of bytes of host memory used
host_op_rate                                   817297                       # Simulator op (including micro ops) rate (op/s)
host_seconds                                  3800.43                       # Real time elapsed on the host
host_tick_rate                              563757227                       # Simulator tick rate (ticks/s)
sim_freq                                 1000000000000                       # Frequency of simulated ticks
sim_insts                                  1664829062                       # Number of instructions simulated
sim_ops                                    3106080257                       # Number of ops (including micro ops) simulated
sim_seconds                                  2.142519                       # Number of seconds simulated
sim_ticks                                2142518940063                       # Number of ticks simulated
system.cpu0.Branches                        100005070                       # Number of branches fetched
system.cpu0.committedInsts                 1000000001                       # Number of instructions committed
system.cpu0.committedOps                   1900003052                       # Number of ops (including micro ops) committed
system.cpu0.dtb.rdAccesses                  399992433                       # TLB accesses on read requests
system.cpu0.dtb.rdMisses                       195621                       # TLB misses on read requests
system.cpu0.dtb.wrAccesses                  199997894                       # TLB accesses on write requests
system.cpu0.dtb.wrMisses                           42                       # TLB misses on write requests
system.cpu0.idle_fraction                           0                       # Percentage of idle cycles
system.cpu0.itb.rdAccesses                          0                       # TLB accesses on read requests
system.cpu0.itb.rdMisses                            0                       # TLB misses on read requests
system.cpu0.itb.wrAccesses                 1300001549                       # TLB accesses on write requests
system.cpu0.itb.wrMisses                           42                       # TLB misses on write requests
system.cpu0.not_idle_fraction                       1                       # Percentage of non-idle cycles
system.cpu0.numCycles                      6433990811                       # number of cpu cycles simulated
system.cpu0.numWorkItemsCompleted                   0                       # number of work items this cpu completed
system.cpu0.numWorkItemsStarted                     0                       # number of work items this cpu started
system.cpu0.num_busy_cycles                6433990811                       # Number of busy cycles
system.cpu0.num_cc_register_reads           500025690                       # number of times the CC registers were read
system.cpu0.num_cc_register_writes          600000804                       # number of times the CC registers were written
system.cpu0.num_conditional_control_insts    100002724                       # number of instructions that are conditional controls
system.cpu0.num_fp_alu_accesses                  5835                       # Number of float alu accesses
system.cpu0.num_fp_insts                         5835                       # number of float instructions
system.cpu0.num_fp_register_reads                8883                       # number of times the floating registers were read
system.cpu0.num_fp_register_writes               4418                       # number of times the floating registers were written
system.cpu0.num_func_calls                       1296                       # number of times a function call or return occured
system.cpu0.num_idle_cycles                         0                       # Number of idle cycles
system.cpu0.num_int_alu_accesses           1899998501                       # Number of integer alu accesses
system.cpu0.num_int_insts                  1899998501                       # number of integer instructions
system.cpu0.num_int_register_reads         3799992253                       # number of times the integer registers were read
system.cpu0.num_int_register_writes        1599995227                       # number of times the integer registers were written
system.cpu0.num_load_insts                  399992395                       # Number of load instructions
system.cpu0.num_mem_refs                    599990254                       # number of memory refs
system.cpu0.num_store_insts                 199997859                       # Number of store instructions
system.cpu0.num_vec_alu_accesses                    0                       # Number of vector alu accesses
system.cpu0.num_vec_insts                           0                       # number of vector instructions
system.cpu0.num_vec_register_reads                  0                       # number of times the vector registers were read
system.cpu0.num_vec_register_writes                 0                       # number of times the vector registers were written
system.cpu0.op_class::No_OpClass                 1238      0.00%      0.00% # Class of executed instruction
system.cpu0.op_class::IntAlu               1300007784     68.42%     68.42% # Class of executed instruction
system.cpu0.op_class::IntMult                      65      0.00%     68.42% # Class of executed instruction
system.cpu0.op_class::IntDiv                      273      0.00%     68.42% # Class of executed instruction
system.cpu0.op_class::FloatAdd                    210      0.00%     68.42% # Class of executed instruction
system.cpu0.op_class::FloatCmp                      0      0.00%     68.42% # Class of executed instruction
system.cpu0.op_class::FloatCvt                      0      0.00%     68.42% # Class of executed instruction
system.cpu0.op_class::FloatMult                     0      0.00%     68.42% # Class of executed instruction
system.cpu0.op_class::FloatMultAcc                  0      0.00%     68.42% # Class of executed instruction
system.cpu0.op_class::FloatDiv                      0      0.00%     68.42% # Class of executed instruction
system.cpu0.op_class::FloatMisc                     0      0.00%     68.42% # Class of executed instruction
system.cpu0.op_class::FloatSqrt                     0      0.00%     68.42% # Class of executed instruction
system.cpu0.op_class::SimdAdd                       0      0.00%     68.42% # Class of executed instruction
system.cpu0.op_class::SimdAddAcc                    0      0.00%     68.42% # Class of executed instruction
system.cpu0.op_class::SimdAlu                     794      0.00%     68.42% # Class of executed instruction
system.cpu0.op_class::SimdCmp                       0      0.00%     68.42% # Class of executed instruction
system.cpu0.op_class::SimdCvt                    1166      0.00%     68.42% # Class of executed instruction
system.cpu0.op_class::SimdMisc                   1268      0.00%     68.42% # Class of executed instruction
system.cpu0.op_class::SimdMult                      0      0.00%     68.42% # Class of executed instruction
system.cpu0.op_class::SimdMultAcc                   0      0.00%     68.42% # Class of executed instruction
system.cpu0.op_class::SimdShift                     0      0.00%     68.42% # Class of executed instruction
system.cpu0.op_class::SimdShiftAcc                  0      0.00%     68.42% # Class of executed instruction
system.cpu0.op_class::SimdDiv                       0      0.00%     68.42% # Class of executed instruction
system.cpu0.op_class::SimdSqrt                      0      0.00%     68.42% # Class of executed instruction
system.cpu0.op_class::SimdFloatAdd                  0      0.00%     68.42% # Class of executed instruction
system.cpu0.op_class::SimdFloatAlu                  0      0.00%     68.42% # Class of executed instruction
system.cpu0.op_class::SimdFloatCmp                  0      0.00%     68.42% # Class of executed instruction
system.cpu0.op_class::SimdFloatCvt                  0      0.00%     68.42% # Class of executed instruction
system.cpu0.op_class::SimdFloatDiv                  0      0.00%     68.42% # Class of executed instruction
system.cpu0.op_class::SimdFloatMisc                 0      0.00%     68.42% # Class of executed instruction
system.cpu0.op_class::SimdFloatMult                 0      0.00%     68.42% # Class of executed instruction
system.cpu0.op_class::SimdFloatMultAcc              0      0.00%     68.42% # Class of executed instruction
system.cpu0.op_class::SimdFloatSqrt                 0      0.00%     68.42% # Class of executed instruction
system.cpu0.op_class::SimdReduceAdd                 0      0.00%     68.42% # Class of executed instruction
system.cpu0.op_class::SimdReduceAlu                 0      0.00%     68.42% # Class of executed instruction
system.cpu0.op_class::SimdReduceCmp                 0      0.00%     68.42% # Class of executed instruction
system.cpu0.op_class::SimdFloatReduceAdd            0      0.00%     68.42% # Class of executed instruction
system.cpu0.op_class::SimdFloatReduceCmp            0      0.00%     68.42% # Class of executed instruction
system.cpu0.op_class::SimdAes                       0      0.00%     68.42% # Class of executed instruction
system.cpu0.op_class::SimdAesMix                    0      0.00%     68.42% # Class of executed instruction
system.cpu0.op_class::SimdSha1Hash                  0      0.00%     68.42% # Class of executed instruction
system.cpu0.op_class::SimdSha1Hash2                 0      0.00%     68.42% # Class of executed instruction
system.cpu0.op_class::SimdSha256Hash                0      0.00%     68.42% # Class of executed instruction
system.cpu0.op_class::SimdSha256Hash2               0      0.00%     68.42% # Class of executed instruction
system.cpu0.op_class::SimdShaSigma2                 0      0.00%     68.42% # Class of executed instruction
system.cpu0.op_class::SimdShaSigma3                 0      0.00%     68.42% # Class of executed instruction
system.cpu0.op_class::SimdPredAlu                   0      0.00%     68.42% # Class of executed instruction
system.cpu0.op_class::MemRead               399991440     21.05%     89.47% # Class of executed instruction
system.cpu0.op_class::MemWrite              199997048     10.53%    100.00% # Class of executed instruction
system.cpu0.op_class::FloatMemRead                955      0.00%    100.00% # Class of executed instruction
system.cpu0.op_class::FloatMemWrite               811      0.00%    100.00% # Class of executed instruction
system.cpu0.op_class::IprAccess                     0      0.00%    100.00% # Class of executed instruction
system.cpu0.op_class::InstPrefetch                  0      0.00%    100.00% # Class of executed instruction
system.cpu0.op_class::total                1900003052                       # Class of executed instruction
system.cpu0.workload.numSyscalls                   45                       # Number of system calls
system.cpu1.Branches                        153465044                       # Number of branches fetched
system.cpu1.committedInsts                  664829061                       # Number of instructions committed
system.cpu1.committedOps                   1206077205                       # Number of ops (including micro ops) committed
system.cpu1.dtb.rdAccesses                  186550842                       # TLB accesses on read requests
system.cpu1.dtb.rdMisses                     10710019                       # TLB misses on read requests
system.cpu1.dtb.wrAccesses                   81097508                       # TLB accesses on write requests
system.cpu1.dtb.wrMisses                       295370                       # TLB misses on write requests
system.cpu1.idle_fraction                           0                       # Percentage of idle cycles
system.cpu1.itb.rdAccesses                          0                       # TLB accesses on read requests
system.cpu1.itb.rdMisses                            0                       # TLB misses on read requests
system.cpu1.itb.wrAccesses                  869432169                       # TLB accesses on write requests
system.cpu1.itb.wrMisses                           61                       # TLB misses on write requests
system.cpu1.not_idle_fraction                       1                       # Percentage of non-idle cycles
system.cpu1.numCycles                      6433990811                       # number of cpu cycles simulated
system.cpu1.numWorkItemsCompleted                   0                       # number of work items this cpu completed
system.cpu1.numWorkItemsStarted                     0                       # number of work items this cpu started
system.cpu1.num_busy_cycles                6433990811                       # Number of busy cycles
system.cpu1.num_cc_register_reads           802645701                       # number of times the CC registers were read
system.cpu1.num_cc_register_writes          376618761                       # number of times the CC registers were written
system.cpu1.num_conditional_control_insts    125654901                       # number of instructions that are conditional controls
system.cpu1.num_fp_alu_accesses              16776288                       # Number of float alu accesses
system.cpu1.num_fp_insts                     16776288                       # number of float instructions
system.cpu1.num_fp_register_reads            17592671                       # number of times the floating registers were read
system.cpu1.num_fp_register_writes           10343855                       # number of times the floating registers were written
system.cpu1.num_func_calls                   17740927                       # number of times a function call or return occured
system.cpu1.num_idle_cycles                         0                       # Number of idle cycles
system.cpu1.num_int_alu_accesses           1187919978                       # Number of integer alu accesses
system.cpu1.num_int_insts                  1187919978                       # number of integer instructions
system.cpu1.num_int_register_reads         2377983670                       # number of times the integer registers were read
system.cpu1.num_int_register_writes         959352096                       # number of times the integer registers were written
system.cpu1.num_load_insts                  186511284                       # Number of load instructions
system.cpu1.num_mem_refs                    267608785                       # number of memory refs
system.cpu1.num_store_insts                  81097501                       # Number of store instructions
system.cpu1.num_vec_alu_accesses                    0                       # Number of vector alu accesses
system.cpu1.num_vec_insts                           0                       # number of vector instructions
system.cpu1.num_vec_register_reads                  0                       # number of times the vector registers were read
system.cpu1.num_vec_register_writes                 0                       # number of times the vector registers were written
system.cpu1.op_class::No_OpClass             11541846      0.96%      0.96% # Class of executed instruction
system.cpu1.op_class::IntAlu                913644152     75.75%     76.71% # Class of executed instruction
system.cpu1.op_class::IntMult                 2600352      0.22%     76.93% # Class of executed instruction
system.cpu1.op_class::IntDiv                  3153120      0.26%     77.19% # Class of executed instruction
system.cpu1.op_class::FloatAdd                2086320      0.17%     77.36% # Class of executed instruction
system.cpu1.op_class::FloatCmp                      0      0.00%     77.36% # Class of executed instruction
system.cpu1.op_class::FloatCvt                      0      0.00%     77.36% # Class of executed instruction
system.cpu1.op_class::FloatMult                     0      0.00%     77.36% # Class of executed instruction
system.cpu1.op_class::FloatMultAcc                  0      0.00%     77.36% # Class of executed instruction
system.cpu1.op_class::FloatDiv                      0      0.00%     77.36% # Class of executed instruction
system.cpu1.op_class::FloatMisc                     0      0.00%     77.36% # Class of executed instruction
system.cpu1.op_class::FloatSqrt                     0      0.00%     77.36% # Class of executed instruction
system.cpu1.op_class::SimdAdd                       0      0.00%     77.36% # Class of executed instruction
system.cpu1.op_class::SimdAddAcc                    0      0.00%     77.36% # Class of executed instruction
system.cpu1.op_class::SimdAlu                  356154      0.03%     77.39% # Class of executed instruction
system.cpu1.op_class::SimdCmp                      32      0.00%     77.39% # Class of executed instruction
system.cpu1.op_class::SimdCvt                  780858      0.06%     77.45% # Class of executed instruction
system.cpu1.op_class::SimdMisc                4305586      0.36%     77.81% # Class of executed instruction
system.cpu1.op_class::SimdMult                      0      0.00%     77.81% # Class of executed instruction
system.cpu1.op_class::SimdMultAcc                   0      0.00%     77.81% # Class of executed instruction
system.cpu1.op_class::SimdShift                     0      0.00%     77.81% # Class of executed instruction
system.cpu1.op_class::SimdShiftAcc                  0      0.00%     77.81% # Class of executed instruction
system.cpu1.op_class::SimdDiv                       0      0.00%     77.81% # Class of executed instruction
system.cpu1.op_class::SimdSqrt                      0      0.00%     77.81% # Class of executed instruction
system.cpu1.op_class::SimdFloatAdd                  0      0.00%     77.81% # Class of executed instruction
system.cpu1.op_class::SimdFloatAlu                  0      0.00%     77.81% # Class of executed instruction
system.cpu1.op_class::SimdFloatCmp                  0      0.00%     77.81% # Class of executed instruction
system.cpu1.op_class::SimdFloatCvt                  0      0.00%     77.81% # Class of executed instruction
system.cpu1.op_class::SimdFloatDiv                  0      0.00%     77.81% # Class of executed instruction
system.cpu1.op_class::SimdFloatMisc                 0      0.00%     77.81% # Class of executed instruction
system.cpu1.op_class::SimdFloatMult                 0      0.00%     77.81% # Class of executed instruction
system.cpu1.op_class::SimdFloatMultAcc              0      0.00%     77.81% # Class of executed instruction
system.cpu1.op_class::SimdFloatSqrt                 0      0.00%     77.81% # Class of executed instruction
system.cpu1.op_class::SimdReduceAdd                 0      0.00%     77.81% # Class of executed instruction
system.cpu1.op_class::SimdReduceAlu                 0      0.00%     77.81% # Class of executed instruction
system.cpu1.op_class::SimdReduceCmp                 0      0.00%     77.81% # Class of executed instruction
system.cpu1.op_class::SimdFloatReduceAdd            0      0.00%     77.81% # Class of executed instruction
system.cpu1.op_class::SimdFloatReduceCmp            0      0.00%     77.81% # Class of executed instruction
system.cpu1.op_class::SimdAes                       0      0.00%     77.81% # Class of executed instruction
system.cpu1.op_class::SimdAesMix                    0      0.00%     77.81% # Class of executed instruction
system.cpu1.op_class::SimdSha1Hash                  0      0.00%     77.81% # Class of executed instruction
system.cpu1.op_class::SimdSha1Hash2                 0      0.00%     77.81% # Class of executed instruction
system.cpu1.op_class::SimdSha256Hash                0      0.00%     77.81% # Class of executed instruction
system.cpu1.op_class::SimdSha256Hash2               0      0.00%     77.81% # Class of executed instruction
system.cpu1.op_class::SimdShaSigma2                 0      0.00%     77.81% # Class of executed instruction
system.cpu1.op_class::SimdShaSigma3                 0      0.00%     77.81% # Class of executed instruction
system.cpu1.op_class::SimdPredAlu                   0      0.00%     77.81% # Class of executed instruction
system.cpu1.op_class::MemRead               184137259     15.27%     93.08% # Class of executed instruction
system.cpu1.op_class::MemWrite               75445860      6.26%     99.33% # Class of executed instruction
system.cpu1.op_class::FloatMemRead            2374025      0.20%     99.53% # Class of executed instruction
system.cpu1.op_class::FloatMemWrite           5651641      0.47%    100.00% # Class of executed instruction
system.cpu1.op_class::IprAccess                     0      0.00%    100.00% # Class of executed instruction
system.cpu1.op_class::InstPrefetch                  0      0.00%    100.00% # Class of executed instruction
system.cpu1.op_class::total                1206077205                       # Class of executed instruction
system.cpu1.workload.numSyscalls                  307                       # Number of system calls
system.membus.snoop_filter.hit_multi_requests            0                       # Number of requests hitting in the snoop filter with multiple (>1) holders of the requested data.
system.membus.snoop_filter.hit_multi_snoops            0                       # Number of snoops hitting in the snoop filter with multiple (>1) holders of the requested data.
system.membus.snoop_filter.hit_single_requests     17054904                       # Number of requests hitting in the snoop filter with a single holder of the requested data.
system.membus.snoop_filter.hit_single_snoops            0                       # Number of snoops hitting in the snoop filter with a single holder of the requested data.
system.membus.snoop_filter.tot_requests      34372878                       # Total number of requests made to the snoop filter.
system.membus.snoop_filter.tot_snoops               0                       # Total number of snoops made to the snoop filter.
system.tol2bus.snoop_filter.hit_multi_requests            0                       # Number of requests hitting in the snoop filter with multiple (>1) holders of the requested data.
system.tol2bus.snoop_filter.hit_multi_snoops            0                       # Number of snoops hitting in the snoop filter with multiple (>1) holders of the requested data.
system.tol2bus.snoop_filter.hit_single_requests     88322488                       # Number of requests hitting in the snoop filter with a single holder of the requested data.
system.tol2bus.snoop_filter.hit_single_snoops         2222                       # Number of snoops hitting in the snoop filter with a single holder of the requested data.
system.tol2bus.snoop_filter.tot_requests    176645917                       # Total number of requests made to the snoop filter.
system.tol2bus.snoop_filter.tot_snoops           2222                       # Total number of snoops made to the snoop filter.
system.membus.pwrStateResidencyTicks::UNDEFINED 2142518940063                       # Cumulative time (in ticks) in various power states
system.membus.trans_dist::ReadResp           16948264                       # Transaction distribution
system.membus.trans_dist::WritebackDirty       613578                       # Transaction distribution
system.membus.trans_dist::CleanEvict         16441326                       # Transaction distribution
system.membus.trans_dist::ReadExReq            369710                       # Transaction distribution
system.membus.trans_dist::ReadExResp           369710                       # Transaction distribution
system.membus.trans_dist::ReadSharedReq      16948264                       # Transaction distribution
system.membus.pkt_count_system.l2.mem_side::system.mem_ctrls.port     51690852                       # Packet count per connected master and slave (bytes)
system.membus.pkt_count_system.l2.mem_side::total     51690852                       # Packet count per connected master and slave (bytes)
system.membus.pkt_count::total               51690852                       # Packet count per connected master and slave (bytes)
system.membus.pkt_size_system.l2.mem_side::system.mem_ctrls.port   1147619328                       # Cumulative packet size per connected master and slave (bytes)
system.membus.pkt_size_system.l2.mem_side::total   1147619328                       # Cumulative packet size per connected master and slave (bytes)
system.membus.pkt_size::total              1147619328                       # Cumulative packet size per connected master and slave (bytes)
system.membus.snoops                                0                       # Total snoops (count)
system.membus.snoopTraffic                          0                       # Total snoop traffic (bytes)
system.membus.snoop_fanout::samples          17317974                       # Request fanout histogram
system.membus.snoop_fanout::mean                    0                       # Request fanout histogram
system.membus.snoop_fanout::stdev                   0                       # Request fanout histogram
system.membus.snoop_fanout::underflows              0      0.00%      0.00% # Request fanout histogram
system.membus.snoop_fanout::0                17317974    100.00%    100.00% # Request fanout histogram
system.membus.snoop_fanout::1                       0      0.00%    100.00% # Request fanout histogram
system.membus.snoop_fanout::overflows               0      0.00%    100.00% # Request fanout histogram
system.membus.snoop_fanout::min_value               0                       # Request fanout histogram
system.membus.snoop_fanout::max_value               0                       # Request fanout histogram
system.membus.snoop_fanout::total            17317974                       # Request fanout histogram
system.membus.reqLayer4.occupancy         58765496309                       # Layer occupancy (ticks)
system.membus.reqLayer4.utilization               2.7                       # Layer utilization (%)
system.membus.respLayer1.occupancy        92512195455                       # Layer occupancy (ticks)
system.membus.respLayer1.utilization              4.3                       # Layer utilization (%)
system.voltage_domain.voltage                       1                       # Voltage in Volts
system.clk_domain.clock                          1000                       # Clock period in ticks
system.cpu0.numPwrStateTransitions                  1                       # Number of power state transitions
system.cpu0.pwrStateResidencyTicks::ON   2142518940063                       # Cumulative time (in ticks) in various power states
system.cpu0.icache.pwrStateResidencyTicks::UNDEFINED 2142518940063                       # Cumulative time (in ticks) in various power states
system.cpu0.icache.demand_hits::.cpu0.inst   1300001096                       # number of demand (read+write) hits
system.cpu0.icache.demand_hits::total      1300001096                       # number of demand (read+write) hits
system.cpu0.icache.overall_hits::.cpu0.inst   1300001096                       # number of overall hits
system.cpu0.icache.overall_hits::total     1300001096                       # number of overall hits
system.cpu0.icache.demand_misses::.cpu0.inst          453                       # number of demand (read+write) misses
system.cpu0.icache.demand_misses::total           453                       # number of demand (read+write) misses
system.cpu0.icache.overall_misses::.cpu0.inst          453                       # number of overall misses
system.cpu0.icache.overall_misses::total          453                       # number of overall misses
system.cpu0.icache.demand_miss_latency::.cpu0.inst     38110185                       # number of demand (read+write) miss cycles
system.cpu0.icache.demand_miss_latency::total     38110185                       # number of demand (read+write) miss cycles
system.cpu0.icache.overall_miss_latency::.cpu0.inst     38110185                       # number of overall miss cycles
system.cpu0.icache.overall_miss_latency::total     38110185                       # number of overall miss cycles
system.cpu0.icache.demand_accesses::.cpu0.inst   1300001549                       # number of demand (read+write) accesses
system.cpu0.icache.demand_accesses::total   1300001549                       # number of demand (read+write) accesses
system.cpu0.icache.overall_accesses::.cpu0.inst   1300001549                       # number of overall (read+write) accesses
system.cpu0.icache.overall_accesses::total   1300001549                       # number of overall (read+write) accesses
system.cpu0.icache.demand_miss_rate::.cpu0.inst     0.000000                       # miss rate for demand accesses
system.cpu0.icache.demand_miss_rate::total     0.000000                       # miss rate for demand accesses
system.cpu0.icache.overall_miss_rate::.cpu0.inst     0.000000                       # miss rate for overall accesses
system.cpu0.icache.overall_miss_rate::total     0.000000                       # miss rate for overall accesses
system.cpu0.icache.demand_avg_miss_latency::.cpu0.inst 84128.443709                       # average overall miss latency
system.cpu0.icache.demand_avg_miss_latency::total 84128.443709                       # average overall miss latency
system.cpu0.icache.overall_avg_miss_latency::.cpu0.inst 84128.443709                       # average overall miss latency
system.cpu0.icache.overall_avg_miss_latency::total 84128.443709                       # average overall miss latency
system.cpu0.icache.blocked_cycles::no_mshrs            0                       # number of cycles access was blocked
system.cpu0.icache.blocked_cycles::no_targets            0                       # number of cycles access was blocked
system.cpu0.icache.blocked::no_mshrs                0                       # number of cycles access was blocked
system.cpu0.icache.blocked::no_targets              0                       # number of cycles access was blocked
system.cpu0.icache.avg_blocked_cycles::no_mshrs          nan                       # average number of cycles each access was blocked
system.cpu0.icache.avg_blocked_cycles::no_targets          nan                       # average number of cycles each access was blocked
system.cpu0.icache.writebacks::.writebacks           40                       # number of writebacks
system.cpu0.icache.writebacks::total               40                       # number of writebacks
system.cpu0.icache.demand_mshr_misses::.cpu0.inst          453                       # number of demand (read+write) MSHR misses
system.cpu0.icache.demand_mshr_misses::total          453                       # number of demand (read+write) MSHR misses
system.cpu0.icache.overall_mshr_misses::.cpu0.inst          453                       # number of overall MSHR misses
system.cpu0.icache.overall_mshr_misses::total          453                       # number of overall MSHR misses
system.cpu0.icache.demand_mshr_miss_latency::.cpu0.inst     37808487                       # number of demand (read+write) MSHR miss cycles
system.cpu0.icache.demand_mshr_miss_latency::total     37808487                       # number of demand (read+write) MSHR miss cycles
system.cpu0.icache.overall_mshr_miss_latency::.cpu0.inst     37808487                       # number of overall MSHR miss cycles
system.cpu0.icache.overall_mshr_miss_latency::total     37808487                       # number of overall MSHR miss cycles
system.cpu0.icache.demand_mshr_miss_rate::.cpu0.inst     0.000000                       # mshr miss rate for demand accesses
system.cpu0.icache.demand_mshr_miss_rate::total     0.000000                       # mshr miss rate for demand accesses
system.cpu0.icache.overall_mshr_miss_rate::.cpu0.inst     0.000000                       # mshr miss rate for overall accesses
system.cpu0.icache.overall_mshr_miss_rate::total     0.000000                       # mshr miss rate for overall accesses
system.cpu0.icache.demand_avg_mshr_miss_latency::.cpu0.inst 83462.443709                       # average overall mshr miss latency
system.cpu0.icache.demand_avg_mshr_miss_latency::total 83462.443709                       # average overall mshr miss latency
system.cpu0.icache.overall_avg_mshr_miss_latency::.cpu0.inst 83462.443709                       # average overall mshr miss latency
system.cpu0.icache.overall_avg_mshr_miss_latency::total 83462.443709                       # average overall mshr miss latency
system.cpu0.icache.replacements                    40                       # number of replacements
system.cpu0.icache.ReadReq_hits::.cpu0.inst   1300001096                       # number of ReadReq hits
system.cpu0.icache.ReadReq_hits::total     1300001096                       # number of ReadReq hits
system.cpu0.icache.ReadReq_misses::.cpu0.inst          453                       # number of ReadReq misses
system.cpu0.icache.ReadReq_misses::total          453                       # number of ReadReq misses
system.cpu0.icache.ReadReq_miss_latency::.cpu0.inst     38110185                       # number of ReadReq miss cycles
system.cpu0.icache.ReadReq_miss_latency::total     38110185                       # number of ReadReq miss cycles
system.cpu0.icache.ReadReq_accesses::.cpu0.inst   1300001549                       # number of ReadReq accesses(hits+misses)
system.cpu0.icache.ReadReq_accesses::total   1300001549                       # number of ReadReq accesses(hits+misses)
system.cpu0.icache.ReadReq_miss_rate::.cpu0.inst     0.000000                       # miss rate for ReadReq accesses
system.cpu0.icache.ReadReq_miss_rate::total     0.000000                       # miss rate for ReadReq accesses
system.cpu0.icache.ReadReq_avg_miss_latency::.cpu0.inst 84128.443709                       # average ReadReq miss latency
system.cpu0.icache.ReadReq_avg_miss_latency::total 84128.443709                       # average ReadReq miss latency
system.cpu0.icache.ReadReq_mshr_misses::.cpu0.inst          453                       # number of ReadReq MSHR misses
system.cpu0.icache.ReadReq_mshr_misses::total          453                       # number of ReadReq MSHR misses
system.cpu0.icache.ReadReq_mshr_miss_latency::.cpu0.inst     37808487                       # number of ReadReq MSHR miss cycles
system.cpu0.icache.ReadReq_mshr_miss_latency::total     37808487                       # number of ReadReq MSHR miss cycles
system.cpu0.icache.ReadReq_mshr_miss_rate::.cpu0.inst     0.000000                       # mshr miss rate for ReadReq accesses
system.cpu0.icache.ReadReq_mshr_miss_rate::total     0.000000                       # mshr miss rate for ReadReq accesses
system.cpu0.icache.ReadReq_avg_mshr_miss_latency::.cpu0.inst 83462.443709                       # average ReadReq mshr miss latency
system.cpu0.icache.ReadReq_avg_mshr_miss_latency::total 83462.443709                       # average ReadReq mshr miss latency
system.cpu0.icache.tags.pwrStateResidencyTicks::UNDEFINED 2142518940063                       # Cumulative time (in ticks) in various power states
system.cpu0.icache.tags.tagsinuse          410.743751                       # Cycle average of tags in use
system.cpu0.icache.tags.total_refs         1300001549                       # Total number of references to valid blocks.
system.cpu0.icache.tags.sampled_refs              453                       # Sample count of references to valid blocks.
system.cpu0.icache.tags.avg_refs         2869760.593819                       # Average number of references to valid blocks.
system.cpu0.icache.tags.warmup_cycle            83250                       # Cycle when the warmup percentage was hit.
system.cpu0.icache.tags.occ_blocks::.cpu0.inst   410.743751                       # Average occupied blocks per requestor
system.cpu0.icache.tags.occ_percent::.cpu0.inst     0.802234                       # Average percentage of cache occupancy
system.cpu0.icache.tags.occ_percent::total     0.802234                       # Average percentage of cache occupancy
system.cpu0.icache.tags.occ_task_id_blocks::1024          413                       # Occupied blocks per task id
system.cpu0.icache.tags.age_task_id_blocks_1024::4          413                       # Occupied blocks per task id
system.cpu0.icache.tags.occ_task_id_percent::1024     0.806641                       # Percentage of cache occupancy per task id
system.cpu0.icache.tags.tag_accesses      10400012845                       # Number of tag accesses
system.cpu0.icache.tags.data_accesses     10400012845                       # Number of data accesses
system.cpu0.icache.tags.repl_invalid                0                       # Number of initial replacements
system.cpu0.icache.tags.repl_valid_tag              0                       # Number of local replacements
system.cpu0.icache.tags.repl_valid_data             0                       # Number of global replacements
system.cpu0.dtb.walker.pwrStateResidencyTicks::UNDEFINED 2142518940063                       # Cumulative time (in ticks) in various power states
system.cpu0.interrupts.clk_domain.clock          5328                       # Clock period in ticks
system.cpu0.itb_walker_cache.pwrStateResidencyTicks::UNDEFINED 2142518940063                       # Cumulative time (in ticks) in various power states
system.cpu0.itb_walker_cache.blocked_cycles::no_mshrs            0                       # number of cycles access was blocked
system.cpu0.itb_walker_cache.blocked_cycles::no_targets            0                       # number of cycles access was blocked
system.cpu0.itb_walker_cache.blocked::no_mshrs            0                       # number of cycles access was blocked
system.cpu0.itb_walker_cache.blocked::no_targets            0                       # number of cycles access was blocked
system.cpu0.itb_walker_cache.avg_blocked_cycles::no_mshrs          nan                       # average number of cycles each access was blocked
system.cpu0.itb_walker_cache.avg_blocked_cycles::no_targets          nan                       # average number of cycles each access was blocked
system.cpu0.itb_walker_cache.replacements            0                       # number of replacements
system.cpu0.itb_walker_cache.tags.pwrStateResidencyTicks::UNDEFINED 2142518940063                       # Cumulative time (in ticks) in various power states
system.cpu0.itb_walker_cache.tags.tagsinuse            0                       # Cycle average of tags in use
system.cpu0.itb_walker_cache.tags.total_refs            0                       # Total number of references to valid blocks.
system.cpu0.itb_walker_cache.tags.sampled_refs            0                       # Sample count of references to valid blocks.
system.cpu0.itb_walker_cache.tags.avg_refs          nan                       # Average number of references to valid blocks.
system.cpu0.itb_walker_cache.tags.warmup_cycle            0                       # Cycle when the warmup percentage was hit.
system.cpu0.itb_walker_cache.tags.tag_accesses            0                       # Number of tag accesses
system.cpu0.itb_walker_cache.tags.data_accesses            0                       # Number of data accesses
system.cpu0.itb_walker_cache.tags.repl_invalid            0                       # Number of initial replacements
system.cpu0.itb_walker_cache.tags.repl_valid_tag            0                       # Number of local replacements
system.cpu0.itb_walker_cache.tags.repl_valid_data            0                       # Number of global replacements
system.cpu0.itb.walker.pwrStateResidencyTicks::UNDEFINED 2142518940063                       # Cumulative time (in ticks) in various power states
system.cpu0.dtb_walker_cache.pwrStateResidencyTicks::UNDEFINED 2142518940063                       # Cumulative time (in ticks) in various power states
system.cpu0.dtb_walker_cache.blocked_cycles::no_mshrs            0                       # number of cycles access was blocked
system.cpu0.dtb_walker_cache.blocked_cycles::no_targets            0                       # number of cycles access was blocked
system.cpu0.dtb_walker_cache.blocked::no_mshrs            0                       # number of cycles access was blocked
system.cpu0.dtb_walker_cache.blocked::no_targets            0                       # number of cycles access was blocked
system.cpu0.dtb_walker_cache.avg_blocked_cycles::no_mshrs          nan                       # average number of cycles each access was blocked
system.cpu0.dtb_walker_cache.avg_blocked_cycles::no_targets          nan                       # average number of cycles each access was blocked
system.cpu0.dtb_walker_cache.replacements            0                       # number of replacements
system.cpu0.dtb_walker_cache.tags.pwrStateResidencyTicks::UNDEFINED 2142518940063                       # Cumulative time (in ticks) in various power states
system.cpu0.dtb_walker_cache.tags.tagsinuse            0                       # Cycle average of tags in use
system.cpu0.dtb_walker_cache.tags.total_refs            0                       # Total number of references to valid blocks.
system.cpu0.dtb_walker_cache.tags.sampled_refs            0                       # Sample count of references to valid blocks.
system.cpu0.dtb_walker_cache.tags.avg_refs          nan                       # Average number of references to valid blocks.
system.cpu0.dtb_walker_cache.tags.warmup_cycle            0                       # Cycle when the warmup percentage was hit.
system.cpu0.dtb_walker_cache.tags.tag_accesses            0                       # Number of tag accesses
system.cpu0.dtb_walker_cache.tags.data_accesses            0                       # Number of data accesses
system.cpu0.dtb_walker_cache.tags.repl_invalid            0                       # Number of initial replacements
system.cpu0.dtb_walker_cache.tags.repl_valid_tag            0                       # Number of local replacements
system.cpu0.dtb_walker_cache.tags.repl_valid_data            0                       # Number of global replacements
system.cpu0.dcache.pwrStateResidencyTicks::UNDEFINED 2142518940063                       # Cumulative time (in ticks) in various power states
system.cpu0.dcache.demand_hits::.cpu0.data    587487306                       # number of demand (read+write) hits
system.cpu0.dcache.demand_hits::total       587487306                       # number of demand (read+write) hits
system.cpu0.dcache.overall_hits::.cpu0.data    587487306                       # number of overall hits
system.cpu0.dcache.overall_hits::total      587487306                       # number of overall hits
system.cpu0.dcache.demand_misses::.cpu0.data     12503021                       # number of demand (read+write) misses
system.cpu0.dcache.demand_misses::total      12503021                       # number of demand (read+write) misses
system.cpu0.dcache.overall_misses::.cpu0.data     12503021                       # number of overall misses
system.cpu0.dcache.overall_misses::total     12503021                       # number of overall misses
system.cpu0.dcache.demand_miss_latency::.cpu0.data 885413613420                       # number of demand (read+write) miss cycles
system.cpu0.dcache.demand_miss_latency::total 885413613420                       # number of demand (read+write) miss cycles
system.cpu0.dcache.overall_miss_latency::.cpu0.data 885413613420                       # number of overall miss cycles
system.cpu0.dcache.overall_miss_latency::total 885413613420                       # number of overall miss cycles
system.cpu0.dcache.demand_accesses::.cpu0.data    599990327                       # number of demand (read+write) accesses
system.cpu0.dcache.demand_accesses::total    599990327                       # number of demand (read+write) accesses
system.cpu0.dcache.overall_accesses::.cpu0.data    599990327                       # number of overall (read+write) accesses
system.cpu0.dcache.overall_accesses::total    599990327                       # number of overall (read+write) accesses
system.cpu0.dcache.demand_miss_rate::.cpu0.data     0.020839                       # miss rate for demand accesses
system.cpu0.dcache.demand_miss_rate::total     0.020839                       # miss rate for demand accesses
system.cpu0.dcache.overall_miss_rate::.cpu0.data     0.020839                       # miss rate for overall accesses
system.cpu0.dcache.overall_miss_rate::total     0.020839                       # miss rate for overall accesses
system.cpu0.dcache.demand_avg_miss_latency::.cpu0.data 70815.974269                       # average overall miss latency
system.cpu0.dcache.demand_avg_miss_latency::total 70815.974269                       # average overall miss latency
system.cpu0.dcache.overall_avg_miss_latency::.cpu0.data 70815.974269                       # average overall miss latency
system.cpu0.dcache.overall_avg_miss_latency::total 70815.974269                       # average overall miss latency
system.cpu0.dcache.blocked_cycles::no_mshrs            0                       # number of cycles access was blocked
system.cpu0.dcache.blocked_cycles::no_targets            0                       # number of cycles access was blocked
system.cpu0.dcache.blocked::no_mshrs                0                       # number of cycles access was blocked
system.cpu0.dcache.blocked::no_targets              0                       # number of cycles access was blocked
system.cpu0.dcache.avg_blocked_cycles::no_mshrs          nan                       # average number of cycles each access was blocked
system.cpu0.dcache.avg_blocked_cycles::no_targets          nan                       # average number of cycles each access was blocked
system.cpu0.dcache.writebacks::.writebacks         2089                       # number of writebacks
system.cpu0.dcache.writebacks::total             2089                       # number of writebacks
system.cpu0.dcache.demand_mshr_misses::.cpu0.data     12503021                       # number of demand (read+write) MSHR misses
system.cpu0.dcache.demand_mshr_misses::total     12503021                       # number of demand (read+write) MSHR misses
system.cpu0.dcache.overall_mshr_misses::.cpu0.data     12503021                       # number of overall MSHR misses
system.cpu0.dcache.overall_mshr_misses::total     12503021                       # number of overall MSHR misses
system.cpu0.dcache.demand_mshr_miss_latency::.cpu0.data 877086601434                       # number of demand (read+write) MSHR miss cycles
system.cpu0.dcache.demand_mshr_miss_latency::total 877086601434                       # number of demand (read+write) MSHR miss cycles
system.cpu0.dcache.overall_mshr_miss_latency::.cpu0.data 877086601434                       # number of overall MSHR miss cycles
system.cpu0.dcache.overall_mshr_miss_latency::total 877086601434                       # number of overall MSHR miss cycles
system.cpu0.dcache.demand_mshr_miss_rate::.cpu0.data     0.020839                       # mshr miss rate for demand accesses
system.cpu0.dcache.demand_mshr_miss_rate::total     0.020839                       # mshr miss rate for demand accesses
system.cpu0.dcache.overall_mshr_miss_rate::.cpu0.data     0.020839                       # mshr miss rate for overall accesses
system.cpu0.dcache.overall_mshr_miss_rate::total     0.020839                       # mshr miss rate for overall accesses
system.cpu0.dcache.demand_avg_mshr_miss_latency::.cpu0.data 70149.974269                       # average overall mshr miss latency
system.cpu0.dcache.demand_avg_mshr_miss_latency::total 70149.974269                       # average overall mshr miss latency
system.cpu0.dcache.overall_avg_mshr_miss_latency::.cpu0.data 70149.974269                       # average overall mshr miss latency
system.cpu0.dcache.overall_avg_mshr_miss_latency::total 70149.974269                       # average overall mshr miss latency
system.cpu0.dcache.replacements              12503013                       # number of replacements
system.cpu0.dcache.ReadReq_hits::.cpu0.data    387490491                       # number of ReadReq hits
system.cpu0.dcache.ReadReq_hits::total      387490491                       # number of ReadReq hits
system.cpu0.dcache.ReadReq_misses::.cpu0.data     12501942                       # number of ReadReq misses
system.cpu0.dcache.ReadReq_misses::total     12501942                       # number of ReadReq misses
system.cpu0.dcache.ReadReq_miss_latency::.cpu0.data 885360402684                       # number of ReadReq miss cycles
system.cpu0.dcache.ReadReq_miss_latency::total 885360402684                       # number of ReadReq miss cycles
system.cpu0.dcache.ReadReq_accesses::.cpu0.data    399992433                       # number of ReadReq accesses(hits+misses)
system.cpu0.dcache.ReadReq_accesses::total    399992433                       # number of ReadReq accesses(hits+misses)
system.cpu0.dcache.ReadReq_miss_rate::.cpu0.data     0.031255                       # miss rate for ReadReq accesses
system.cpu0.dcache.ReadReq_miss_rate::total     0.031255                       # miss rate for ReadReq accesses
system.cpu0.dcache.ReadReq_avg_miss_latency::.cpu0.data 70817.829957                       # average ReadReq miss latency
system.cpu0.dcache.ReadReq_avg_miss_latency::total 70817.829957                       # average ReadReq miss latency
system.cpu0.dcache.ReadReq_mshr_misses::.cpu0.data     12501942                       # number of ReadReq MSHR misses
system.cpu0.dcache.ReadReq_mshr_misses::total     12501942                       # number of ReadReq MSHR misses
system.cpu0.dcache.ReadReq_mshr_miss_latency::.cpu0.data 877034109312                       # number of ReadReq MSHR miss cycles
system.cpu0.dcache.ReadReq_mshr_miss_latency::total 877034109312                       # number of ReadReq MSHR miss cycles
system.cpu0.dcache.ReadReq_mshr_miss_rate::.cpu0.data     0.031255                       # mshr miss rate for ReadReq accesses
system.cpu0.dcache.ReadReq_mshr_miss_rate::total     0.031255                       # mshr miss rate for ReadReq accesses
system.cpu0.dcache.ReadReq_avg_mshr_miss_latency::.cpu0.data 70151.829957                       # average ReadReq mshr miss latency
system.cpu0.dcache.ReadReq_avg_mshr_miss_latency::total 70151.829957                       # average ReadReq mshr miss latency
system.cpu0.dcache.WriteReq_hits::.cpu0.data    199996815                       # number of WriteReq hits
system.cpu0.dcache.WriteReq_hits::total     199996815                       # number of WriteReq hits
system.cpu0.dcache.WriteReq_misses::.cpu0.data         1079                       # number of WriteReq misses
system.cpu0.dcache.WriteReq_misses::total         1079                       # number of WriteReq misses
system.cpu0.dcache.WriteReq_miss_latency::.cpu0.data     53210736                       # number of WriteReq miss cycles
system.cpu0.dcache.WriteReq_miss_latency::total     53210736                       # number of WriteReq miss cycles
system.cpu0.dcache.WriteReq_accesses::.cpu0.data    199997894                       # number of WriteReq accesses(hits+misses)
system.cpu0.dcache.WriteReq_accesses::total    199997894                       # number of WriteReq accesses(hits+misses)
system.cpu0.dcache.WriteReq_miss_rate::.cpu0.data     0.000005                       # miss rate for WriteReq accesses
system.cpu0.dcache.WriteReq_miss_rate::total     0.000005                       # miss rate for WriteReq accesses
system.cpu0.dcache.WriteReq_avg_miss_latency::.cpu0.data 49314.861909                       # average WriteReq miss latency
system.cpu0.dcache.WriteReq_avg_miss_latency::total 49314.861909                       # average WriteReq miss latency
system.cpu0.dcache.WriteReq_mshr_misses::.cpu0.data         1079                       # number of WriteReq MSHR misses
system.cpu0.dcache.WriteReq_mshr_misses::total         1079                       # number of WriteReq MSHR misses
system.cpu0.dcache.WriteReq_mshr_miss_latency::.cpu0.data     52492122                       # number of WriteReq MSHR miss cycles
system.cpu0.dcache.WriteReq_mshr_miss_latency::total     52492122                       # number of WriteReq MSHR miss cycles
system.cpu0.dcache.WriteReq_mshr_miss_rate::.cpu0.data     0.000005                       # mshr miss rate for WriteReq accesses
system.cpu0.dcache.WriteReq_mshr_miss_rate::total     0.000005                       # mshr miss rate for WriteReq accesses
system.cpu0.dcache.WriteReq_avg_mshr_miss_latency::.cpu0.data 48648.861909                       # average WriteReq mshr miss latency
system.cpu0.dcache.WriteReq_avg_mshr_miss_latency::total 48648.861909                       # average WriteReq mshr miss latency
system.cpu0.dcache.tags.pwrStateResidencyTicks::UNDEFINED 2142518940063                       # Cumulative time (in ticks) in various power states
system.cpu0.dcache.tags.tagsinuse            7.999997                       # Cycle average of tags in use
system.cpu0.dcache.tags.total_refs          599990327                       # Total number of references to valid blocks.
system.cpu0.dcache.tags.sampled_refs         12503021                       # Sample count of references to valid blocks.
system.cpu0.dcache.tags.avg_refs            47.987629                       # Average number of references to valid blocks.
system.cpu0.dcache.tags.warmup_cycle           166167                       # Cycle when the warmup percentage was hit.
system.cpu0.dcache.tags.occ_blocks::.cpu0.data     7.999997                       # Average occupied blocks per requestor
system.cpu0.dcache.tags.occ_percent::.cpu0.data     1.000000                       # Average percentage of cache occupancy
system.cpu0.dcache.tags.occ_percent::total     1.000000                       # Average percentage of cache occupancy
system.cpu0.dcache.tags.occ_task_id_blocks::1024            8                       # Occupied blocks per task id
system.cpu0.dcache.tags.age_task_id_blocks_1024::0            7                       # Occupied blocks per task id
system.cpu0.dcache.tags.age_task_id_blocks_1024::4            1                       # Occupied blocks per task id
system.cpu0.dcache.tags.occ_task_id_percent::1024            1                       # Percentage of cache occupancy per task id
system.cpu0.dcache.tags.tag_accesses       4812425637                       # Number of tag accesses
system.cpu0.dcache.tags.data_accesses      4812425637                       # Number of data accesses
system.cpu0.dcache.tags.repl_invalid                0                       # Number of initial replacements
system.cpu0.dcache.tags.repl_valid_tag              0                       # Number of local replacements
system.cpu0.dcache.tags.repl_valid_data             0                       # Number of global replacements
system.cpu1.numPwrStateTransitions                  1                       # Number of power state transitions
system.cpu1.pwrStateResidencyTicks::ON   2142518940063                       # Cumulative time (in ticks) in various power states
system.cpu1.icache.pwrStateResidencyTicks::UNDEFINED 2142518940063                       # Cumulative time (in ticks) in various power states
system.cpu1.icache.demand_hits::.cpu1.inst    869431353                       # number of demand (read+write) hits
system.cpu1.icache.demand_hits::total       869431353                       # number of demand (read+write) hits
system.cpu1.icache.overall_hits::.cpu1.inst    869431353                       # number of overall hits
system.cpu1.icache.overall_hits::total      869431353                       # number of overall hits
system.cpu1.icache.demand_misses::.cpu1.inst          816                       # number of demand (read+write) misses
system.cpu1.icache.demand_misses::total           816                       # number of demand (read+write) misses
system.cpu1.icache.overall_misses::.cpu1.inst          816                       # number of overall misses
system.cpu1.icache.overall_misses::total          816                       # number of overall misses
system.cpu1.icache.demand_miss_latency::.cpu1.inst     70299630                       # number of demand (read+write) miss cycles
system.cpu1.icache.demand_miss_latency::total     70299630                       # number of demand (read+write) miss cycles
system.cpu1.icache.overall_miss_latency::.cpu1.inst     70299630                       # number of overall miss cycles
system.cpu1.icache.overall_miss_latency::total     70299630                       # number of overall miss cycles
system.cpu1.icache.demand_accesses::.cpu1.inst    869432169                       # number of demand (read+write) accesses
system.cpu1.icache.demand_accesses::total    869432169                       # number of demand (read+write) accesses
system.cpu1.icache.overall_accesses::.cpu1.inst    869432169                       # number of overall (read+write) accesses
system.cpu1.icache.overall_accesses::total    869432169                       # number of overall (read+write) accesses
system.cpu1.icache.demand_miss_rate::.cpu1.inst     0.000001                       # miss rate for demand accesses
system.cpu1.icache.demand_miss_rate::total     0.000001                       # miss rate for demand accesses
system.cpu1.icache.overall_miss_rate::.cpu1.inst     0.000001                       # miss rate for overall accesses
system.cpu1.icache.overall_miss_rate::total     0.000001                       # miss rate for overall accesses
system.cpu1.icache.demand_avg_miss_latency::.cpu1.inst 86151.507353                       # average overall miss latency
system.cpu1.icache.demand_avg_miss_latency::total 86151.507353                       # average overall miss latency
system.cpu1.icache.overall_avg_miss_latency::.cpu1.inst 86151.507353                       # average overall miss latency
system.cpu1.icache.overall_avg_miss_latency::total 86151.507353                       # average overall miss latency
system.cpu1.icache.blocked_cycles::no_mshrs            0                       # number of cycles access was blocked
system.cpu1.icache.blocked_cycles::no_targets            0                       # number of cycles access was blocked
system.cpu1.icache.blocked::no_mshrs                0                       # number of cycles access was blocked
system.cpu1.icache.blocked::no_targets              0                       # number of cycles access was blocked
system.cpu1.icache.avg_blocked_cycles::no_mshrs          nan                       # average number of cycles each access was blocked
system.cpu1.icache.avg_blocked_cycles::no_targets          nan                       # average number of cycles each access was blocked
system.cpu1.icache.writebacks::.writebacks          304                       # number of writebacks
system.cpu1.icache.writebacks::total              304                       # number of writebacks
system.cpu1.icache.demand_mshr_misses::.cpu1.inst          816                       # number of demand (read+write) MSHR misses
system.cpu1.icache.demand_mshr_misses::total          816                       # number of demand (read+write) MSHR misses
system.cpu1.icache.overall_mshr_misses::.cpu1.inst          816                       # number of overall MSHR misses
system.cpu1.icache.overall_mshr_misses::total          816                       # number of overall MSHR misses
system.cpu1.icache.demand_mshr_miss_latency::.cpu1.inst     69756174                       # number of demand (read+write) MSHR miss cycles
system.cpu1.icache.demand_mshr_miss_latency::total     69756174                       # number of demand (read+write) MSHR miss cycles
system.cpu1.icache.overall_mshr_miss_latency::.cpu1.inst     69756174                       # number of overall MSHR miss cycles
system.cpu1.icache.overall_mshr_miss_latency::total     69756174                       # number of overall MSHR miss cycles
system.cpu1.icache.demand_mshr_miss_rate::.cpu1.inst     0.000001                       # mshr miss rate for demand accesses
system.cpu1.icache.demand_mshr_miss_rate::total     0.000001                       # mshr miss rate for demand accesses
system.cpu1.icache.overall_mshr_miss_rate::.cpu1.inst     0.000001                       # mshr miss rate for overall accesses
system.cpu1.icache.overall_mshr_miss_rate::total     0.000001                       # mshr miss rate for overall accesses
system.cpu1.icache.demand_avg_mshr_miss_latency::.cpu1.inst 85485.507353                       # average overall mshr miss latency
system.cpu1.icache.demand_avg_mshr_miss_latency::total 85485.507353                       # average overall mshr miss latency
system.cpu1.icache.overall_avg_mshr_miss_latency::.cpu1.inst 85485.507353                       # average overall mshr miss latency
system.cpu1.icache.overall_avg_mshr_miss_latency::total 85485.507353                       # average overall mshr miss latency
system.cpu1.icache.replacements                   304                       # number of replacements
system.cpu1.icache.ReadReq_hits::.cpu1.inst    869431353                       # number of ReadReq hits
system.cpu1.icache.ReadReq_hits::total      869431353                       # number of ReadReq hits
system.cpu1.icache.ReadReq_misses::.cpu1.inst          816                       # number of ReadReq misses
system.cpu1.icache.ReadReq_misses::total          816                       # number of ReadReq misses
system.cpu1.icache.ReadReq_miss_latency::.cpu1.inst     70299630                       # number of ReadReq miss cycles
system.cpu1.icache.ReadReq_miss_latency::total     70299630                       # number of ReadReq miss cycles
system.cpu1.icache.ReadReq_accesses::.cpu1.inst    869432169                       # number of ReadReq accesses(hits+misses)
system.cpu1.icache.ReadReq_accesses::total    869432169                       # number of ReadReq accesses(hits+misses)
system.cpu1.icache.ReadReq_miss_rate::.cpu1.inst     0.000001                       # miss rate for ReadReq accesses
system.cpu1.icache.ReadReq_miss_rate::total     0.000001                       # miss rate for ReadReq accesses
system.cpu1.icache.ReadReq_avg_miss_latency::.cpu1.inst 86151.507353                       # average ReadReq miss latency
system.cpu1.icache.ReadReq_avg_miss_latency::total 86151.507353                       # average ReadReq miss latency
system.cpu1.icache.ReadReq_mshr_misses::.cpu1.inst          816                       # number of ReadReq MSHR misses
system.cpu1.icache.ReadReq_mshr_misses::total          816                       # number of ReadReq MSHR misses
system.cpu1.icache.ReadReq_mshr_miss_latency::.cpu1.inst     69756174                       # number of ReadReq MSHR miss cycles
system.cpu1.icache.ReadReq_mshr_miss_latency::total     69756174                       # number of ReadReq MSHR miss cycles
system.cpu1.icache.ReadReq_mshr_miss_rate::.cpu1.inst     0.000001                       # mshr miss rate for ReadReq accesses
system.cpu1.icache.ReadReq_mshr_miss_rate::total     0.000001                       # mshr miss rate for ReadReq accesses
system.cpu1.icache.ReadReq_avg_mshr_miss_latency::.cpu1.inst 85485.507353                       # average ReadReq mshr miss latency
system.cpu1.icache.ReadReq_avg_mshr_miss_latency::total 85485.507353                       # average ReadReq mshr miss latency
system.cpu1.icache.tags.pwrStateResidencyTicks::UNDEFINED 2142518940063                       # Cumulative time (in ticks) in various power states
system.cpu1.icache.tags.tagsinuse          506.023604                       # Cycle average of tags in use
system.cpu1.icache.tags.total_refs          869432169                       # Total number of references to valid blocks.
system.cpu1.icache.tags.sampled_refs              816                       # Sample count of references to valid blocks.
system.cpu1.icache.tags.avg_refs         1065480.599265                       # Average number of references to valid blocks.
system.cpu1.icache.tags.warmup_cycle            88245                       # Cycle when the warmup percentage was hit.
system.cpu1.icache.tags.occ_blocks::.cpu1.inst   506.023604                       # Average occupied blocks per requestor
system.cpu1.icache.tags.occ_percent::.cpu1.inst     0.988327                       # Average percentage of cache occupancy
system.cpu1.icache.tags.occ_percent::total     0.988327                       # Average percentage of cache occupancy
system.cpu1.icache.tags.occ_task_id_blocks::1024          512                       # Occupied blocks per task id
system.cpu1.icache.tags.age_task_id_blocks_1024::4          512                       # Occupied blocks per task id
system.cpu1.icache.tags.occ_task_id_percent::1024            1                       # Percentage of cache occupancy per task id
system.cpu1.icache.tags.tag_accesses       6955458168                       # Number of tag accesses
system.cpu1.icache.tags.data_accesses      6955458168                       # Number of data accesses
system.cpu1.icache.tags.repl_invalid                0                       # Number of initial replacements
system.cpu1.icache.tags.repl_valid_tag              0                       # Number of local replacements
system.cpu1.icache.tags.repl_valid_data             0                       # Number of global replacements
system.cpu1.dtb.walker.pwrStateResidencyTicks::UNDEFINED 2142518940063                       # Cumulative time (in ticks) in various power states
system.cpu1.interrupts.clk_domain.clock          5328                       # Clock period in ticks
system.cpu1.itb_walker_cache.pwrStateResidencyTicks::UNDEFINED 2142518940063                       # Cumulative time (in ticks) in various power states
system.cpu1.itb_walker_cache.blocked_cycles::no_mshrs            0                       # number of cycles access was blocked
system.cpu1.itb_walker_cache.blocked_cycles::no_targets            0                       # number of cycles access was blocked
system.cpu1.itb_walker_cache.blocked::no_mshrs            0                       # number of cycles access was blocked
system.cpu1.itb_walker_cache.blocked::no_targets            0                       # number of cycles access was blocked
system.cpu1.itb_walker_cache.avg_blocked_cycles::no_mshrs          nan                       # average number of cycles each access was blocked
system.cpu1.itb_walker_cache.avg_blocked_cycles::no_targets          nan                       # average number of cycles each access was blocked
system.cpu1.itb_walker_cache.replacements            0                       # number of replacements
system.cpu1.itb_walker_cache.tags.pwrStateResidencyTicks::UNDEFINED 2142518940063                       # Cumulative time (in ticks) in various power states
system.cpu1.itb_walker_cache.tags.tagsinuse            0                       # Cycle average of tags in use
system.cpu1.itb_walker_cache.tags.total_refs            0                       # Total number of references to valid blocks.
system.cpu1.itb_walker_cache.tags.sampled_refs            0                       # Sample count of references to valid blocks.
system.cpu1.itb_walker_cache.tags.avg_refs          nan                       # Average number of references to valid blocks.
system.cpu1.itb_walker_cache.tags.warmup_cycle            0                       # Cycle when the warmup percentage was hit.
system.cpu1.itb_walker_cache.tags.tag_accesses            0                       # Number of tag accesses
system.cpu1.itb_walker_cache.tags.data_accesses            0                       # Number of data accesses
system.cpu1.itb_walker_cache.tags.repl_invalid            0                       # Number of initial replacements
system.cpu1.itb_walker_cache.tags.repl_valid_tag            0                       # Number of local replacements
system.cpu1.itb_walker_cache.tags.repl_valid_data            0                       # Number of global replacements
system.cpu1.itb.walker.pwrStateResidencyTicks::UNDEFINED 2142518940063                       # Cumulative time (in ticks) in various power states
system.cpu1.dtb_walker_cache.pwrStateResidencyTicks::UNDEFINED 2142518940063                       # Cumulative time (in ticks) in various power states
system.cpu1.dtb_walker_cache.blocked_cycles::no_mshrs            0                       # number of cycles access was blocked
system.cpu1.dtb_walker_cache.blocked_cycles::no_targets            0                       # number of cycles access was blocked
system.cpu1.dtb_walker_cache.blocked::no_mshrs            0                       # number of cycles access was blocked
system.cpu1.dtb_walker_cache.blocked::no_targets            0                       # number of cycles access was blocked
system.cpu1.dtb_walker_cache.avg_blocked_cycles::no_mshrs          nan                       # average number of cycles each access was blocked
system.cpu1.dtb_walker_cache.avg_blocked_cycles::no_targets          nan                       # average number of cycles each access was blocked
system.cpu1.dtb_walker_cache.replacements            0                       # number of replacements
system.cpu1.dtb_walker_cache.tags.pwrStateResidencyTicks::UNDEFINED 2142518940063                       # Cumulative time (in ticks) in various power states
system.cpu1.dtb_walker_cache.tags.tagsinuse            0                       # Cycle average of tags in use
system.cpu1.dtb_walker_cache.tags.total_refs            0                       # Total number of references to valid blocks.
system.cpu1.dtb_walker_cache.tags.sampled_refs            0                       # Sample count of references to valid blocks.
system.cpu1.dtb_walker_cache.tags.avg_refs          nan                       # Average number of references to valid blocks.
system.cpu1.dtb_walker_cache.tags.warmup_cycle            0                       # Cycle when the warmup percentage was hit.
system.cpu1.dtb_walker_cache.tags.tag_accesses            0                       # Number of tag accesses
system.cpu1.dtb_walker_cache.tags.data_accesses            0                       # Number of data accesses
system.cpu1.dtb_walker_cache.tags.repl_invalid            0                       # Number of initial replacements
system.cpu1.dtb_walker_cache.tags.repl_valid_tag            0                       # Number of local replacements
system.cpu1.dtb_walker_cache.tags.repl_valid_data            0                       # Number of global replacements
system.cpu1.dcache.pwrStateResidencyTicks::UNDEFINED 2142518940063                       # Cumulative time (in ticks) in various power states
system.cpu1.dcache.demand_hits::.cpu1.data    191829211                       # number of demand (read+write) hits
system.cpu1.dcache.demand_hits::total       191829211                       # number of demand (read+write) hits
system.cpu1.dcache.overall_hits::.cpu1.data    191829211                       # number of overall hits
system.cpu1.dcache.overall_hits::total      191829211                       # number of overall hits
system.cpu1.dcache.demand_misses::.cpu1.data     75819139                       # number of demand (read+write) misses
system.cpu1.dcache.demand_misses::total      75819139                       # number of demand (read+write) misses
system.cpu1.dcache.overall_misses::.cpu1.data     75819139                       # number of overall misses
system.cpu1.dcache.overall_misses::total     75819139                       # number of overall misses
system.cpu1.dcache.demand_miss_latency::.cpu1.data 1435662292608                       # number of demand (read+write) miss cycles
system.cpu1.dcache.demand_miss_latency::total 1435662292608                       # number of demand (read+write) miss cycles
system.cpu1.dcache.overall_miss_latency::.cpu1.data 1435662292608                       # number of overall miss cycles
system.cpu1.dcache.overall_miss_latency::total 1435662292608                       # number of overall miss cycles
system.cpu1.dcache.demand_accesses::.cpu1.data    267648350                       # number of demand (read+write) accesses
system.cpu1.dcache.demand_accesses::total    267648350                       # number of demand (read+write) accesses
system.cpu1.dcache.overall_accesses::.cpu1.data    267648350                       # number of overall (read+write) accesses
system.cpu1.dcache.overall_accesses::total    267648350                       # number of overall (read+write) accesses
system.cpu1.dcache.demand_miss_rate::.cpu1.data     0.283279                       # miss rate for demand accesses
system.cpu1.dcache.demand_miss_rate::total     0.283279                       # miss rate for demand accesses
system.cpu1.dcache.overall_miss_rate::.cpu1.data     0.283279                       # miss rate for overall accesses
system.cpu1.dcache.overall_miss_rate::total     0.283279                       # miss rate for overall accesses
system.cpu1.dcache.demand_avg_miss_latency::.cpu1.data 18935.354734                       # average overall miss latency
system.cpu1.dcache.demand_avg_miss_latency::total 18935.354734                       # average overall miss latency
system.cpu1.dcache.overall_avg_miss_latency::.cpu1.data 18935.354734                       # average overall miss latency
system.cpu1.dcache.overall_avg_miss_latency::total 18935.354734                       # average overall miss latency
system.cpu1.dcache.blocked_cycles::no_mshrs            0                       # number of cycles access was blocked
system.cpu1.dcache.blocked_cycles::no_targets            0                       # number of cycles access was blocked
system.cpu1.dcache.blocked::no_mshrs                0                       # number of cycles access was blocked
system.cpu1.dcache.blocked::no_targets              0                       # number of cycles access was blocked
system.cpu1.dcache.avg_blocked_cycles::no_mshrs          nan                       # average number of cycles each access was blocked
system.cpu1.dcache.avg_blocked_cycles::no_targets          nan                       # average number of cycles each access was blocked
system.cpu1.dcache.writebacks::.writebacks     40127174                       # number of writebacks
system.cpu1.dcache.writebacks::total         40127174                       # number of writebacks
system.cpu1.dcache.demand_mshr_misses::.cpu1.data     75819139                       # number of demand (read+write) MSHR misses
system.cpu1.dcache.demand_mshr_misses::total     75819139                       # number of demand (read+write) MSHR misses
system.cpu1.dcache.overall_mshr_misses::.cpu1.data     75819139                       # number of overall MSHR misses
system.cpu1.dcache.overall_mshr_misses::total     75819139                       # number of overall MSHR misses
system.cpu1.dcache.demand_mshr_miss_latency::.cpu1.data 1385166746034                       # number of demand (read+write) MSHR miss cycles
system.cpu1.dcache.demand_mshr_miss_latency::total 1385166746034                       # number of demand (read+write) MSHR miss cycles
system.cpu1.dcache.overall_mshr_miss_latency::.cpu1.data 1385166746034                       # number of overall MSHR miss cycles
system.cpu1.dcache.overall_mshr_miss_latency::total 1385166746034                       # number of overall MSHR miss cycles
system.cpu1.dcache.demand_mshr_miss_rate::.cpu1.data     0.283279                       # mshr miss rate for demand accesses
system.cpu1.dcache.demand_mshr_miss_rate::total     0.283279                       # mshr miss rate for demand accesses
system.cpu1.dcache.overall_mshr_miss_rate::.cpu1.data     0.283279                       # mshr miss rate for overall accesses
system.cpu1.dcache.overall_mshr_miss_rate::total     0.283279                       # mshr miss rate for overall accesses
system.cpu1.dcache.demand_avg_mshr_miss_latency::.cpu1.data 18269.354734                       # average overall mshr miss latency
system.cpu1.dcache.demand_avg_mshr_miss_latency::total 18269.354734                       # average overall mshr miss latency
system.cpu1.dcache.overall_avg_mshr_miss_latency::.cpu1.data 18269.354734                       # average overall mshr miss latency
system.cpu1.dcache.overall_avg_mshr_miss_latency::total 18269.354734                       # average overall mshr miss latency
system.cpu1.dcache.replacements              75819131                       # number of replacements
system.cpu1.dcache.ReadReq_hits::.cpu1.data    121186180                       # number of ReadReq hits
system.cpu1.dcache.ReadReq_hits::total      121186180                       # number of ReadReq hits
system.cpu1.dcache.ReadReq_misses::.cpu1.data     65364662                       # number of ReadReq misses
system.cpu1.dcache.ReadReq_misses::total     65364662                       # number of ReadReq misses
system.cpu1.dcache.ReadReq_miss_latency::.cpu1.data 1290427659621                       # number of ReadReq miss cycles
system.cpu1.dcache.ReadReq_miss_latency::total 1290427659621                       # number of ReadReq miss cycles
system.cpu1.dcache.ReadReq_accesses::.cpu1.data    186550842                       # number of ReadReq accesses(hits+misses)
system.cpu1.dcache.ReadReq_accesses::total    186550842                       # number of ReadReq accesses(hits+misses)
system.cpu1.dcache.ReadReq_miss_rate::.cpu1.data     0.350385                       # miss rate for ReadReq accesses
system.cpu1.dcache.ReadReq_miss_rate::total     0.350385                       # miss rate for ReadReq accesses
system.cpu1.dcache.ReadReq_avg_miss_latency::.cpu1.data 19741.977089                       # average ReadReq miss latency
system.cpu1.dcache.ReadReq_avg_miss_latency::total 19741.977089                       # average ReadReq miss latency
system.cpu1.dcache.ReadReq_mshr_misses::.cpu1.data     65364662                       # number of ReadReq MSHR misses
system.cpu1.dcache.ReadReq_mshr_misses::total     65364662                       # number of ReadReq MSHR misses
system.cpu1.dcache.ReadReq_mshr_miss_latency::.cpu1.data 1246894794729                       # number of ReadReq MSHR miss cycles
system.cpu1.dcache.ReadReq_mshr_miss_latency::total 1246894794729                       # number of ReadReq MSHR miss cycles
system.cpu1.dcache.ReadReq_mshr_miss_rate::.cpu1.data     0.350385                       # mshr miss rate for ReadReq accesses
system.cpu1.dcache.ReadReq_mshr_miss_rate::total     0.350385                       # mshr miss rate for ReadReq accesses
system.cpu1.dcache.ReadReq_avg_mshr_miss_latency::.cpu1.data 19075.977089                       # average ReadReq mshr miss latency
system.cpu1.dcache.ReadReq_avg_mshr_miss_latency::total 19075.977089                       # average ReadReq mshr miss latency
system.cpu1.dcache.WriteReq_hits::.cpu1.data     70643031                       # number of WriteReq hits
system.cpu1.dcache.WriteReq_hits::total      70643031                       # number of WriteReq hits
system.cpu1.dcache.WriteReq_misses::.cpu1.data     10454477                       # number of WriteReq misses
[...]
system.mem_ctrls.wrQLenPdf::118                     0                       # What write queue length does an incoming req see
system.mem_ctrls.wrQLenPdf::119                     0                       # What write queue length does an incoming req see
system.mem_ctrls.wrQLenPdf::120                     0                       # What write queue length does an incoming req see
system.mem_ctrls.wrQLenPdf::121                     0                       # What write queue length does an incoming req see
system.mem_ctrls.wrQLenPdf::122                     0                       # What write queue length does an incoming req see
system.mem_ctrls.wrQLenPdf::123                     0                       # What write queue length does an incoming req see
system.mem_ctrls.wrQLenPdf::124                     0                       # What write queue length does an incoming req see
system.mem_ctrls.wrQLenPdf::125                     0                       # What write queue length does an incoming req see
system.mem_ctrls.wrQLenPdf::126                     0                       # What write queue length does an incoming req see
system.mem_ctrls.wrQLenPdf::127                     0                       # What write queue length does an incoming req see
system.mem_ctrls.bytesPerActivate::samples     17912923                       # Bytes accessed per row activation
system.mem_ctrls.bytesPerActivate::mean            64                       # Bytes accessed per row activation
system.mem_ctrls.bytesPerActivate::gmean    64.000000                       # Bytes accessed per row activation
system.mem_ctrls.bytesPerActivate::64-71     17912923    100.00%    100.00% # Bytes accessed per row activation
system.mem_ctrls.bytesPerActivate::total     17912923                       # Bytes accessed per row activation
system.mem_ctrls.rdPerTurnAround::samples        35329                       # Reads before turning the bus around for writes
system.mem_ctrls.rdPerTurnAround::mean     489.542529                       # Reads before turning the bus around for writes
system.mem_ctrls.rdPerTurnAround::gmean    110.428652                       # Reads before turning the bus around for writes
system.mem_ctrls.rdPerTurnAround::stdev   2140.986324                       # Reads before turning the bus around for writes
system.mem_ctrls.rdPerTurnAround::0-4095        34106     96.54%     96.54% # Reads before turning the bus around for writes
system.mem_ctrls.rdPerTurnAround::4096-8191          332      0.94%     97.48% # Reads before turning the bus around for writes
system.mem_ctrls.rdPerTurnAround::8192-12287          649      1.84%     99.32% # Reads before turning the bus around for writes
system.mem_ctrls.rdPerTurnAround::12288-16383          212      0.60%     99.92% # Reads before turning the bus around for writes
system.mem_ctrls.rdPerTurnAround::16384-20479           27      0.08%     99.99% # Reads before turning the bus around for writes
system.mem_ctrls.rdPerTurnAround::20480-24575            2      0.01%    100.00% # Reads before turning the bus around for writes
system.mem_ctrls.rdPerTurnAround::184320-188415            1      0.00%    100.00% # Reads before turning the bus around for writes
system.mem_ctrls.rdPerTurnAround::total         35329                       # Reads before turning the bus around for writes
system.mem_ctrls.wrPerTurnAround::samples        35329                       # Writes before turning the bus around for reads
system.mem_ctrls.wrPerTurnAround::mean      17.326106                       # Writes before turning the bus around for reads
system.mem_ctrls.wrPerTurnAround::gmean     17.298420                       # Writes before turning the bus around for reads
system.mem_ctrls.wrPerTurnAround::stdev      0.968771                       # Writes before turning the bus around for reads
system.mem_ctrls.wrPerTurnAround::16            11964     33.86%     33.86% # Writes before turning the bus around for reads
system.mem_ctrls.wrPerTurnAround::17              611      1.73%     35.59% # Writes before turning the bus around for reads
system.mem_ctrls.wrPerTurnAround::18            22024     62.34%     97.93% # Writes before turning the bus around for reads
system.mem_ctrls.wrPerTurnAround::19              729      2.06%    100.00% # Writes before turning the bus around for reads
system.mem_ctrls.wrPerTurnAround::20                1      0.00%    100.00% # Writes before turning the bus around for reads
system.mem_ctrls.wrPerTurnAround::total         35329                       # Writes before turning the bus around for reads
system.mem_ctrls.bytesReadDRAM             1107251776                       # Total number of bytes read from DRAM
system.mem_ctrls.bytesReadWrQ                 1098560                       # Total number of bytes read from write queue
system.mem_ctrls.bytesWritten                39175296                       # Total number of bytes written to DRAM
system.mem_ctrls.bytesReadSys              1108350336                       # Total read bytes from the system interface side
system.mem_ctrls.bytesWrittenSys             39268992                       # Total written bytes from the system interface side
system.mem_ctrls.avgRdBW                       516.80                       # Average DRAM read bandwidth in MiByte/s
system.mem_ctrls.avgWrBW                        18.28                       # Average achieved write bandwidth in MiByte/s
system.mem_ctrls.avgRdBWSys                    517.31                       # Average system read bandwidth in MiByte/s
system.mem_ctrls.avgWrBWSys                     18.33                       # Average system write bandwidth in MiByte/s
system.mem_ctrls.peakBW                      19207.00                       # Theoretical peak bandwidth in MiByte/s
system.mem_ctrls.busUtil                         2.79                       # Data bus utilization in percentage
system.mem_ctrls.busUtilRead                     2.69                       # Data bus utilization in percentage for reads
system.mem_ctrls.busUtilWrite                    0.10                       # Data bus utilization in percentage for writes
system.mem_ctrls.totGap                  2142518808195                       # Total gap between requests
system.mem_ctrls.avgGap                     119483.18                       # Average gap between requests
system.mem_ctrls.masterReadBytes::.cpu0.inst        28992                       # Per-master bytes read from memory
system.mem_ctrls.masterReadBytes::.cpu0.data    626246464                       # Per-master bytes read from memory
system.mem_ctrls.masterReadBytes::.cpu1.inst        51840                       # Per-master bytes read from memory
system.mem_ctrls.masterReadBytes::.cpu1.data    480924480                       # Per-master bytes read from memory
system.mem_ctrls.masterWriteBytes::.writebacks     39175296                       # Per-master bytes write to memory
system.mem_ctrls.masterReadRate::.cpu0.inst 13531.735686382079                       # Per-master bytes read from memory rate (Bytes/sec)
system.mem_ctrls.masterReadRate::.cpu0.data 292294482.111595928669                       # Per-master bytes read from memory rate (Bytes/sec)
system.mem_ctrls.masterReadRate::.cpu1.inst 24195.818776974578                       # Per-master bytes read from memory rate (Bytes/sec)
system.mem_ctrls.masterReadRate::.cpu1.data 224466851.147583603859                       # Per-master bytes read from memory rate (Bytes/sec)
system.mem_ctrls.masterWriteRate::.writebacks 18284690.635616071522                       # Per-master bytes write to memory rate (Bytes/sec)
system.mem_ctrls.masterReadAccesses::.cpu0.inst          453                       # Per-master read serviced memory accesses
system.mem_ctrls.masterReadAccesses::.cpu0.data      9785109                       # Per-master read serviced memory accesses
system.mem_ctrls.masterReadAccesses::.cpu1.inst          810                       # Per-master read serviced memory accesses
system.mem_ctrls.masterReadAccesses::.cpu1.data      7531602                       # Per-master read serviced memory accesses
system.mem_ctrls.masterWriteAccesses::.writebacks       613578                       # Per-master write serviced memory accesses
system.mem_ctrls.masterReadTotalLat::.cpu0.inst     16057019                       # Per-master read total memory access latency
system.mem_ctrls.masterReadTotalLat::.cpu0.data 378225795534                       # Per-master read total memory access latency
system.mem_ctrls.masterReadTotalLat::.cpu1.inst     30747212                       # Per-master read total memory access latency
system.mem_ctrls.masterReadTotalLat::.cpu1.data 275842891691                       # Per-master read total memory access latency
system.mem_ctrls.masterWriteTotalLat::.writebacks 118069791039497                       # Per-master write total memory access latency
system.mem_ctrls.masterReadAvgLat::.cpu0.inst     35445.96                       # Per-master read average memory access latency
system.mem_ctrls.masterReadAvgLat::.cpu0.data     38653.20                       # Per-master read average memory access latency
system.mem_ctrls.masterReadAvgLat::.cpu1.inst     37959.52                       # Per-master read average memory access latency
system.mem_ctrls.masterReadAvgLat::.cpu1.data     36624.73                       # Per-master read average memory access latency
system.mem_ctrls.masterWriteAvgLat::.writebacks 192428331.91                       # Per-master write average memory access latency
system.mem_ctrls.pageHitRate                     0.00                       # Row buffer hit rate, read and write combined
system.mem_ctrls.rank1.actEnergy         13969577892.816275                       # Energy for activate commands per rank (pJ)
system.mem_ctrls.rank1.preEnergy         24661677895.384350                       # Energy for precharge commands per rank (pJ)
system.mem_ctrls.rank1.readEnergy        23733234563.350063                       # Energy for read commands per rank (pJ)
system.mem_ctrls.rank1.writeEnergy       721498405.151851                       # Energy for write commands per rank (pJ)
system.mem_ctrls.rank1.refreshEnergy     185982605994.384766                       # Energy for refresh commands per rank (pJ)
system.mem_ctrls.rank1.actBackEnergy     171482424324.062531                       # Energy for active background per rank (pJ)
system.mem_ctrls.rank1.preBackEnergy     580934376494.689209                       # Energy for precharge background per rank (pJ)
system.mem_ctrls.rank1.actPowerDownEnergy            0                       # Energy for active power-down per rank (pJ)
system.mem_ctrls.rank1.prePowerDownEnergy            0                       # Energy for precharge power-down per rank (pJ)
system.mem_ctrls.rank1.selfRefreshEnergy            0                       # Energy for self refresh per rank (pJ)
system.mem_ctrls.rank1.totalEnergy       1001485395570.010864                       # Total energy per rank (pJ)
system.mem_ctrls.rank1.averagePower        467.433625                       # Core power per rank (mW)
system.mem_ctrls.rank1.totalIdleTime                0                       # Total Idle time Per DRAM Rank
system.mem_ctrls.rank1.memoryStateTime::IDLE 1663444723629                       # Time in different power states
system.mem_ctrls.rank1.memoryStateTime::REF  96313350000                       # Time in different power states
system.mem_ctrls.rank1.memoryStateTime::SREF            0                       # Time in different power states
system.mem_ctrls.rank1.memoryStateTime::PRE_PDN            0                       # Time in different power states
system.mem_ctrls.rank1.memoryStateTime::ACT 382760866434                       # Time in different power states
system.mem_ctrls.rank1.memoryStateTime::ACT_PDN            0                       # Time in different power states
system.mem_ctrls.rank0.actEnergy         13963404323.232023                       # Energy for activate commands per rank (pJ)
system.mem_ctrls.rank0.preEnergy         24650779170.618832                       # Energy for precharge commands per rank (pJ)
system.mem_ctrls.rank0.readEnergy        23721195964.716503                       # Energy for read commands per rank (pJ)
system.mem_ctrls.rank0.writeEnergy       722512799.231852                       # Energy for write commands per rank (pJ)
system.mem_ctrls.rank0.refreshEnergy     185982605994.384766                       # Energy for refresh commands per rank (pJ)
system.mem_ctrls.rank0.actBackEnergy     171422698517.942017                       # Energy for active background per rank (pJ)
system.mem_ctrls.rank0.preBackEnergy     580975608523.290161                       # Energy for precharge background per rank (pJ)
system.mem_ctrls.rank0.actPowerDownEnergy            0                       # Energy for active power-down per rank (pJ)
system.mem_ctrls.rank0.prePowerDownEnergy            0                       # Energy for precharge power-down per rank (pJ)
system.mem_ctrls.rank0.selfRefreshEnergy            0                       # Energy for self refresh per rank (pJ)
system.mem_ctrls.rank0.totalEnergy       1001438805293.567871                       # Total energy per rank (pJ)
system.mem_ctrls.rank0.averagePower        467.411880                       # Core power per rank (mW)
system.mem_ctrls.rank0.totalIdleTime                0                       # Total Idle time Per DRAM Rank
system.mem_ctrls.rank0.memoryStateTime::IDLE 1663627270692                       # Time in different power states
system.mem_ctrls.rank0.memoryStateTime::REF  96313350000                       # Time in different power states
system.mem_ctrls.rank0.memoryStateTime::SREF            0                       # Time in different power states
system.mem_ctrls.rank0.memoryStateTime::PRE_PDN            0                       # Time in different power states
system.mem_ctrls.rank0.memoryStateTime::ACT 382578319371                       # Time in different power states
system.mem_ctrls.rank0.memoryStateTime::ACT_PDN            0                       # Time in different power states
system.cpu_clk_domain.clock                       333                       # Clock period in ticks
system.tol2bus.pwrStateResidencyTicks::UNDEFINED 2142518940063                       # Cumulative time (in ticks) in various power states
system.tol2bus.trans_dist::ReadResp          77867873                       # Transaction distribution
system.tol2bus.trans_dist::WritebackDirty     40742841                       # Transaction distribution
system.tol2bus.trans_dist::WritebackClean          344                       # Transaction distribution
system.tol2bus.trans_dist::CleanEvict        64635521                       # Transaction distribution
system.tol2bus.trans_dist::ReadExReq         10455556                       # Transaction distribution
system.tol2bus.trans_dist::ReadExResp        10455556                       # Transaction distribution
system.tol2bus.trans_dist::ReadCleanReq          1269                       # Transaction distribution
system.tol2bus.trans_dist::ReadSharedReq     77866604                       # Transaction distribution
system.tol2bus.pkt_count_system.cpu0.icache.mem_side::system.l2.cpu_side          946                       # Packet count per connected master and slave (bytes)
system.tol2bus.pkt_count_system.cpu0.dcache.mem_side::system.l2.cpu_side     37509055                       # Packet count per connected master and slave (bytes)
system.tol2bus.pkt_count_system.cpu1.icache.mem_side::system.l2.cpu_side         1936                       # Packet count per connected master and slave (bytes)
system.tol2bus.pkt_count_system.cpu1.dcache.mem_side::system.l2.cpu_side    227457409                       # Packet count per connected master and slave (bytes)
system.tol2bus.pkt_count::total             264969346                       # Packet count per connected master and slave (bytes)
system.tol2bus.pkt_size_system.cpu0.icache.mem_side::system.l2.cpu_side        31552                       # Cumulative packet size per connected master and slave (bytes)
system.tol2bus.pkt_size_system.cpu0.dcache.mem_side::system.l2.cpu_side    800327040                       # Cumulative packet size per connected master and slave (bytes)
system.tol2bus.pkt_size_system.cpu1.icache.mem_side::system.l2.cpu_side        71680                       # Cumulative packet size per connected master and slave (bytes)
system.tol2bus.pkt_size_system.cpu1.dcache.mem_side::system.l2.cpu_side   7420564032                       # Cumulative packet size per connected master and slave (bytes)
system.tol2bus.pkt_size::total             8220994304                       # Cumulative packet size per connected master and slave (bytes)
system.tol2bus.snoops                        17056218                       # Total snoops (count)
system.tol2bus.snoopTraffic                  39268992                       # Total snoop traffic (bytes)
system.tol2bus.snoop_fanout::samples        105379647                       # Request fanout histogram
system.tol2bus.snoop_fanout::mean            0.000021                       # Request fanout histogram
system.tol2bus.snoop_fanout::stdev           0.004592                       # Request fanout histogram
system.tol2bus.snoop_fanout::underflows             0      0.00%      0.00% # Request fanout histogram
system.tol2bus.snoop_fanout::0              105377425    100.00%    100.00% # Request fanout histogram
system.tol2bus.snoop_fanout::1                   2222      0.00%    100.00% # Request fanout histogram
system.tol2bus.snoop_fanout::2                      0      0.00%    100.00% # Request fanout histogram
system.tol2bus.snoop_fanout::3                      0      0.00%    100.00% # Request fanout histogram
system.tol2bus.snoop_fanout::4                      0      0.00%    100.00% # Request fanout histogram
system.tol2bus.snoop_fanout::5                      0      0.00%    100.00% # Request fanout histogram
system.tol2bus.snoop_fanout::6                      0      0.00%    100.00% # Request fanout histogram
system.tol2bus.snoop_fanout::7                      0      0.00%    100.00% # Request fanout histogram
system.tol2bus.snoop_fanout::8                      0      0.00%    100.00% # Request fanout histogram
system.tol2bus.snoop_fanout::overflows              0      0.00%    100.00% # Request fanout histogram
system.tol2bus.snoop_fanout::min_value              0                       # Request fanout histogram
system.tol2bus.snoop_fanout::max_value              1                       # Request fanout histogram
system.tol2bus.snoop_fanout::total          105379647                       # Request fanout histogram
system.tol2bus.reqLayer0.occupancy        85549408623                       # Layer occupancy (ticks)
system.tol2bus.reqLayer0.utilization              4.0                       # Layer utilization (%)
system.tol2bus.respLayer5.occupancy       75743474573                       # Layer occupancy (ticks)
system.tol2bus.respLayer5.utilization             3.5                       # Layer utilization (%)
system.tol2bus.respLayer4.occupancy            815848                       # Layer occupancy (ticks)
system.tol2bus.respLayer4.utilization             0.0                       # Layer utilization (%)
system.tol2bus.respLayer1.occupancy       12532280259                       # Layer occupancy (ticks)
system.tol2bus.respLayer1.utilization             0.6                       # Layer utilization (%)
system.tol2bus.respLayer0.occupancy            452879                       # Layer occupancy (ticks)
system.tol2bus.respLayer0.utilization             0.0                       # Layer utilization (%)

---------- End Simulation Statistics   ----------
