
---------- Begin Simulation Statistics ----------
final_tick                                67659601005                       # Number of ticks from beginning of simulation (restored from checkpoints and never reset)
host_inst_rate                                 742922                       # Simulator instruction rate (inst/s)
host_mem_usage                               10760400                       # Number of bytes of host memory used
host_op_rate                                  1406617                       # Simulator op (including micro ops) rate (op/s)
host_seconds                                    53.57                       # Real time elapsed on the host
host_tick_rate                             1262916141                       # Simulator tick rate (ticks/s)
sim_freq                                 1000000000000                       # Frequency of simulated ticks
sim_insts                                    39801314                       # Number of instructions simulated
sim_ops                                      75358235                       # Number of ops (including micro ops) simulated
sim_seconds                                  0.067660                       # Number of seconds simulated
sim_ticks                                 67659601005                       # Number of ticks simulated
system.cpu0.Branches                          2780018                       # Number of branches fetched
system.cpu0.committedInsts                   27788099                       # Number of instructions committed
system.cpu0.committedOps                     52797721                       # Number of ops (including micro ops) committed
system.cpu0.dtb.rdAccesses                   11113063                       # TLB accesses on read requests
system.cpu0.dtb.rdMisses                         5446                       # TLB misses on read requests
system.cpu0.dtb.wrAccesses                    5557395                       # TLB accesses on write requests
system.cpu0.dtb.wrMisses                            8                       # TLB misses on write requests
system.cpu0.idle_fraction                    0.000000                       # Percentage of idle cycles
system.cpu0.itb.rdAccesses                          0                       # TLB accesses on read requests
system.cpu0.itb.rdMisses                            0                       # TLB misses on read requests
system.cpu0.itb.wrAccesses                   38902351                       # TLB accesses on write requests
system.cpu0.itb.wrMisses                           46                       # TLB misses on write requests
system.cpu0.not_idle_fraction                1.000000                       # Percentage of non-idle cycles
system.cpu0.numCycles                       203181985                       # number of cpu cycles simulated
system.cpu0.numWorkItemsCompleted                   0                       # number of work items this cpu completed
system.cpu0.numWorkItemsStarted                     0                       # number of work items this cpu started
system.cpu0.num_busy_cycles              203181984.996997                       # Number of busy cycles
system.cpu0.num_cc_register_reads            13899961                       # number of times the CC registers were read
system.cpu0.num_cc_register_writes           16672913                       # number of times the CC registers were written
system.cpu0.num_conditional_control_insts      2779471                       # number of instructions that are conditional controls
system.cpu0.num_fp_alu_accesses                  1214                       # Number of float alu accesses
system.cpu0.num_fp_insts                         1214                       # number of float instructions
system.cpu0.num_fp_register_reads                1401                       # number of times the floating registers were read
system.cpu0.num_fp_register_writes                679                       # number of times the floating registers were written
system.cpu0.num_func_calls                        384                       # number of times a function call or return occured
system.cpu0.num_idle_cycles                  0.003003                       # Number of idle cycles
system.cpu0.num_int_alu_accesses             52796880                       # Number of integer alu accesses
system.cpu0.num_int_insts                    52796880                       # number of integer instructions
system.cpu0.num_int_register_reads          105592520                       # number of times the integer registers were read
system.cpu0.num_int_register_writes          44459432                       # number of times the integer registers were written
system.cpu0.num_load_insts                   11113060                       # Number of load instructions
system.cpu0.num_mem_refs                     16670454                       # number of memory refs
system.cpu0.num_store_insts                   5557394                       # Number of store instructions
system.cpu0.num_vec_alu_accesses                    0                       # Number of vector alu accesses
system.cpu0.num_vec_insts                           0                       # number of vector instructions
system.cpu0.num_vec_register_reads                  0                       # number of times the vector registers were read
system.cpu0.num_vec_register_writes                 0                       # number of times the vector registers were written
system.cpu0.op_class::No_OpClass                  336      0.00%      0.00% # Class of executed instruction
system.cpu0.op_class::IntAlu                 36126368     68.42%     68.42% # Class of executed instruction
system.cpu0.op_class::IntMult                       5      0.00%     68.42% # Class of executed instruction
system.cpu0.op_class::IntDiv                       28      0.00%     68.42% # Class of executed instruction
system.cpu0.op_class::FloatAdd                    144      0.00%     68.43% # Class of executed instruction
system.cpu0.op_class::FloatCmp                      0      0.00%     68.43% # Class of executed instruction
system.cpu0.op_class::FloatCvt                      0      0.00%     68.43% # Class of executed instruction
system.cpu0.op_class::FloatMult                     0      0.00%     68.43% # Class of executed instruction
system.cpu0.op_class::FloatMultAcc                  0      0.00%     68.43% # Class of executed instruction
system.cpu0.op_class::FloatDiv                      0      0.00%     68.43% # Class of executed instruction
system.cpu0.op_class::FloatMisc                     0      0.00%     68.43% # Class of executed instruction
system.cpu0.op_class::FloatSqrt                     0      0.00%     68.43% # Class of executed instruction
system.cpu0.op_class::SimdAdd                       0      0.00%     68.43% # Class of executed instruction
system.cpu0.op_class::SimdAddAcc                    0      0.00%     68.43% # Class of executed instruction
system.cpu0.op_class::SimdAlu                     104      0.00%     68.43% # Class of executed instruction
system.cpu0.op_class::SimdCmp                       0      0.00%     68.43% # Class of executed instruction
system.cpu0.op_class::SimdCvt                      54      0.00%     68.43% # Class of executed instruction
system.cpu0.op_class::SimdMisc                    228      0.00%     68.43% # Class of executed instruction
system.cpu0.op_class::SimdMult                      0      0.00%     68.43% # Class of executed instruction
system.cpu0.op_class::SimdMultAcc                   0      0.00%     68.43% # Class of executed instruction
system.cpu0.op_class::SimdShift                     0      0.00%     68.43% # Class of executed instruction
system.cpu0.op_class::SimdShiftAcc                  0      0.00%     68.43% # Class of executed instruction
system.cpu0.op_class::SimdDiv                       0      0.00%     68.43% # Class of executed instruction
system.cpu0.op_class::SimdSqrt                      0      0.00%     68.43% # Class of executed instruction
system.cpu0.op_class::SimdFloatAdd                  0      0.00%     68.43% # Class of executed instruction
system.cpu0.op_class::SimdFloatAlu                  0      0.00%     68.43% # Class of executed instruction
system.cpu0.op_class::SimdFloatCmp                  0      0.00%     68.43% # Class of executed instruction
system.cpu0.op_class::SimdFloatCvt                  0      0.00%     68.43% # Class of executed instruction
system.cpu0.op_class::SimdFloatDiv                  0      0.00%     68.43% # Class of executed instruction
system.cpu0.op_class::SimdFloatMisc                 0      0.00%     68.43% # Class of executed instruction
system.cpu0.op_class::SimdFloatMult                 0      0.00%     68.43% # Class of executed instruction
system.cpu0.op_class::SimdFloatMultAcc              0      0.00%     68.43% # Class of executed instruction
system.cpu0.op_class::SimdFloatSqrt                 0      0.00%     68.43% # Class of executed instruction
system.cpu0.op_class::SimdReduceAdd                 0      0.00%     68.43% # Class of executed instruction
system.cpu0.op_class::SimdReduceAlu                 0      0.00%     68.43% # Class of executed instruction
system.cpu0.op_class::SimdReduceCmp                 0      0.00%     68.43% # Class of executed instruction
system.cpu0.op_class::SimdFloatReduceAdd            0      0.00%     68.43% # Class of executed instruction
system.cpu0.op_class::SimdFloatReduceCmp            0      0.00%     68.43% # Class of executed instruction
system.cpu0.op_class::SimdAes                       0      0.00%     68.43% # Class of executed instruction
system.cpu0.op_class::SimdAesMix                    0      0.00%     68.43% # Class of executed instruction
system.cpu0.op_class::SimdSha1Hash                  0      0.00%     68.43% # Class of executed instruction
system.cpu0.op_class::SimdSha1Hash2                 0      0.00%     68.43% # Class of executed instruction
system.cpu0.op_class::SimdSha256Hash                0      0.00%     68.43% # Class of executed instruction
system.cpu0.op_class::SimdSha256Hash2               0      0.00%     68.43% # Class of executed instruction
system.cpu0.op_class::SimdShaSigma2                 0      0.00%     68.43% # Class of executed instruction
system.cpu0.op_class::SimdShaSigma3                 0      0.00%     68.43% # Class of executed instruction
system.cpu0.op_class::SimdPredAlu                   0      0.00%     68.43% # Class of executed instruction
system.cpu0.op_class::MemRead                11113000     21.05%     89.47% # Class of executed instruction
system.cpu0.op_class::MemWrite                5556913     10.52%    100.00% # Class of executed instruction
system.cpu0.op_class::FloatMemRead                 60      0.00%    100.00% # Class of executed instruction
system.cpu0.op_class::FloatMemWrite               481      0.00%    100.00% # Class of executed instruction
system.cpu0.op_class::IprAccess                     0      0.00%    100.00% # Class of executed instruction
system.cpu0.op_class::InstPrefetch                  0      0.00%    100.00% # Class of executed instruction
system.cpu0.op_class::total                  52797721                       # Class of executed instruction
system.cpu0.workload.numSyscalls                   12                       # Number of system calls
system.cpu1.Branches                          2601986                       # Number of branches fetched
system.cpu1.committedInsts                   12013215                       # Number of instructions committed
system.cpu1.committedOps                     22560514                       # Number of ops (including micro ops) committed
system.cpu1.dtb.rdAccesses                    2190078                       # TLB accesses on read requests
system.cpu1.dtb.rdMisses                          191                       # TLB misses on read requests
system.cpu1.dtb.wrAccesses                    1325117                       # TLB accesses on write requests
system.cpu1.dtb.wrMisses                          101                       # TLB misses on write requests
system.cpu1.idle_fraction                    0.745359                       # Percentage of idle cycles
system.cpu1.itb.rdAccesses                          0                       # TLB accesses on read requests
system.cpu1.itb.rdMisses                            0                       # TLB misses on read requests
system.cpu1.itb.wrAccesses                   14836957                       # TLB accesses on write requests
system.cpu1.itb.wrMisses                          195                       # TLB misses on write requests
system.cpu1.not_idle_fraction                0.254641                       # Percentage of non-idle cycles
system.cpu1.numCycles                        51738564                       # number of cpu cycles simulated
system.cpu1.numWorkItemsCompleted                   0                       # number of work items this cpu completed
system.cpu1.numWorkItemsStarted                     0                       # number of work items this cpu started
system.cpu1.num_busy_cycles              13174785.179614                       # Number of busy cycles
system.cpu1.num_cc_register_reads            10614960                       # number of times the CC registers were read
system.cpu1.num_cc_register_writes            6971677                       # number of times the CC registers were written
system.cpu1.num_conditional_control_insts      1520276                       # number of instructions that are conditional controls
system.cpu1.num_fp_alu_accesses                560194                       # Number of float alu accesses
system.cpu1.num_fp_insts                       560194                       # number of float instructions
system.cpu1.num_fp_register_reads              769378                       # number of times the floating registers were read
system.cpu1.num_fp_register_writes             424062                       # number of times the floating registers were written
system.cpu1.num_func_calls                     662438                       # number of times a function call or return occured
system.cpu1.num_idle_cycles              38563778.820386                       # Number of idle cycles
system.cpu1.num_int_alu_accesses             22159675                       # Number of integer alu accesses
system.cpu1.num_int_insts                    22159675                       # number of integer instructions
system.cpu1.num_int_register_reads           43025607                       # number of times the integer registers were read
system.cpu1.num_int_register_writes          18106898                       # number of times the integer registers were written
system.cpu1.num_load_insts                    2180830                       # Number of load instructions
system.cpu1.num_mem_refs                      3505745                       # number of memory refs
system.cpu1.num_store_insts                   1324915                       # Number of store instructions
system.cpu1.num_vec_alu_accesses                    0                       # Number of vector alu accesses
system.cpu1.num_vec_insts                           0                       # number of vector instructions
system.cpu1.num_vec_register_reads                  0                       # number of times the vector registers were read
system.cpu1.num_vec_register_writes                 0                       # number of times the vector registers were written
system.cpu1.op_class::No_OpClass               113023      0.50%      0.50% # Class of executed instruction
system.cpu1.op_class::IntAlu                 18695391     82.87%     83.37% # Class of executed instruction
system.cpu1.op_class::IntMult                   17031      0.08%     83.44% # Class of executed instruction
system.cpu1.op_class::IntDiv                       98      0.00%     83.44% # Class of executed instruction
system.cpu1.op_class::FloatAdd                  20392      0.09%     83.54% # Class of executed instruction
system.cpu1.op_class::FloatCmp                      0      0.00%     83.54% # Class of executed instruction
system.cpu1.op_class::FloatCvt                      0      0.00%     83.54% # Class of executed instruction
system.cpu1.op_class::FloatMult                     0      0.00%     83.54% # Class of executed instruction
system.cpu1.op_class::FloatMultAcc                  0      0.00%     83.54% # Class of executed instruction
system.cpu1.op_class::FloatDiv                      0      0.00%     83.54% # Class of executed instruction
system.cpu1.op_class::FloatMisc                     0      0.00%     83.54% # Class of executed instruction
system.cpu1.op_class::FloatSqrt                     0      0.00%     83.54% # Class of executed instruction
system.cpu1.op_class::SimdAdd                    4470      0.02%     83.55% # Class of executed instruction
system.cpu1.op_class::SimdAddAcc                    0      0.00%     83.55% # Class of executed instruction
system.cpu1.op_class::SimdAlu                   54516      0.24%     83.80% # Class of executed instruction
system.cpu1.op_class::SimdCmp                     982      0.00%     83.80% # Class of executed instruction
system.cpu1.op_class::SimdCvt                    9420      0.04%     83.84% # Class of executed instruction
system.cpu1.op_class::SimdMisc                  38508      0.17%     84.01% # Class of executed instruction
system.cpu1.op_class::SimdMult                      0      0.00%     84.01% # Class of executed instruction
system.cpu1.op_class::SimdMultAcc                   0      0.00%     84.01% # Class of executed instruction
system.cpu1.op_class::SimdShift                     0      0.00%     84.01% # Class of executed instruction
system.cpu1.op_class::SimdShiftAcc                  0      0.00%     84.01% # Class of executed instruction
system.cpu1.op_class::SimdDiv                       0      0.00%     84.01% # Class of executed instruction
system.cpu1.op_class::SimdSqrt                      0      0.00%     84.01% # Class of executed instruction
system.cpu1.op_class::SimdFloatAdd              27958      0.12%     84.14% # Class of executed instruction
system.cpu1.op_class::SimdFloatAlu                  0      0.00%     84.14% # Class of executed instruction
system.cpu1.op_class::SimdFloatCmp                  0      0.00%     84.14% # Class of executed instruction
system.cpu1.op_class::SimdFloatCvt              22404      0.10%     84.24% # Class of executed instruction
system.cpu1.op_class::SimdFloatDiv               3059      0.01%     84.25% # Class of executed instruction
system.cpu1.op_class::SimdFloatMisc                 0      0.00%     84.25% # Class of executed instruction
system.cpu1.op_class::SimdFloatMult             45459      0.20%     84.45% # Class of executed instruction
system.cpu1.op_class::SimdFloatMultAcc              0      0.00%     84.45% # Class of executed instruction
system.cpu1.op_class::SimdFloatSqrt              2058      0.01%     84.46% # Class of executed instruction
system.cpu1.op_class::SimdReduceAdd                 0      0.00%     84.46% # Class of executed instruction
system.cpu1.op_class::SimdReduceAlu                 0      0.00%     84.46% # Class of executed instruction
system.cpu1.op_class::SimdReduceCmp                 0      0.00%     84.46% # Class of executed instruction
system.cpu1.op_class::SimdFloatReduceAdd            0      0.00%     84.46% # Class of executed instruction
system.cpu1.op_class::SimdFloatReduceCmp            0      0.00%     84.46% # Class of executed instruction
system.cpu1.op_class::SimdAes                       0      0.00%     84.46% # Class of executed instruction
system.cpu1.op_class::SimdAesMix                    0      0.00%     84.46% # Class of executed instruction
system.cpu1.op_class::SimdSha1Hash                  0      0.00%     84.46% # Class of executed instruction
system.cpu1.op_class::SimdSha1Hash2                 0      0.00%     84.46% # Class of executed instruction
system.cpu1.op_class::SimdSha256Hash                0      0.00%     84.46% # Class of executed instruction
system.cpu1.op_class::SimdSha256Hash2               0      0.00%     84.46% # Class of executed instruction
system.cpu1.op_class::SimdShaSigma2                 0      0.00%     84.46% # Class of executed instruction
system.cpu1.op_class::SimdShaSigma3                 0      0.00%     84.46% # Class of executed instruction
system.cpu1.op_class::SimdPredAlu                   0      0.00%     84.46% # Class of executed instruction
system.cpu1.op_class::MemRead                 2052486      9.10%     93.56% # Class of executed instruction
system.cpu1.op_class::MemWrite                1209955      5.36%     98.92% # Class of executed instruction
system.cpu1.op_class::FloatMemRead             128344      0.57%     99.49% # Class of executed instruction
system.cpu1.op_class::FloatMemWrite            114960      0.51%    100.00% # Class of executed instruction
system.cpu1.op_class::IprAccess                     0      0.00%    100.00% # Class of executed instruction
system.cpu1.op_class::InstPrefetch                  0      0.00%    100.00% # Class of executed instruction
system.cpu1.op_class::total                  22560514                       # Class of executed instruction
system.cpu1.workload.numSyscalls                   26                       # Number of system calls
system.membus.snoop_filter.hit_multi_requests            0                       # Number of requests hitting in the snoop filter with multiple (>1) holders of the requested data.
system.membus.snoop_filter.hit_multi_snoops            0                       # Number of snoops hitting in the snoop filter with multiple (>1) holders of the requested data.
system.membus.snoop_filter.hit_single_requests       135310                       # Number of requests hitting in the snoop filter with a single holder of the requested data.
system.membus.snoop_filter.hit_single_snoops            0                       # Number of snoops hitting in the snoop filter with a single holder of the requested data.
system.membus.snoop_filter.tot_requests        494690                       # Total number of requests made to the snoop filter.
system.membus.snoop_filter.tot_snoops               0                       # Total number of snoops made to the snoop filter.
system.tol2bus.snoop_filter.hit_multi_requests            0                       # Number of requests hitting in the snoop filter with multiple (>1) holders of the requested data.
system.tol2bus.snoop_filter.hit_multi_snoops            0                       # Number of snoops hitting in the snoop filter with multiple (>1) holders of the requested data.
system.tol2bus.snoop_filter.hit_single_requests       743201                       # Number of requests hitting in the snoop filter with a single holder of the requested data.
system.tol2bus.snoop_filter.hit_single_snoops          630                       # Number of snoops hitting in the snoop filter with a single holder of the requested data.
system.tol2bus.snoop_filter.tot_requests      1487361                       # Total number of requests made to the snoop filter.
system.tol2bus.snoop_filter.tot_snoops            630                       # Total number of snoops made to the snoop filter.
system.membus.pwrStateResidencyTicks::UNDEFINED  67659601005                       # Cumulative time (in ticks) in various power states
system.membus.trans_dist::ReadResp             355073                       # Transaction distribution
system.membus.trans_dist::WritebackDirty         3555                       # Transaction distribution
system.membus.trans_dist::CleanEvict           131755                       # Transaction distribution
system.membus.trans_dist::ReadExReq              4307                       # Transaction distribution
system.membus.trans_dist::ReadExResp             4307                       # Transaction distribution
system.membus.trans_dist::ReadSharedReq        355073                       # Transaction distribution
system.membus.pkt_count_system.l2.mem_side::system.mem_ctrls.port       854070                       # Packet count per connected master and slave (bytes)
system.membus.pkt_count_system.l2.mem_side::total       854070                       # Packet count per connected master and slave (bytes)
system.membus.pkt_count::total                 854070                       # Packet count per connected master and slave (bytes)
system.membus.pkt_size_system.l2.mem_side::system.mem_ctrls.port     23227840                       # Cumulative packet size per connected master and slave (bytes)
system.membus.pkt_size_system.l2.mem_side::total     23227840                       # Cumulative packet size per connected master and slave (bytes)
system.membus.pkt_size::total                23227840                       # Cumulative packet size per connected master and slave (bytes)
system.membus.snoops                                0                       # Total snoops (count)
system.membus.snoopTraffic                          0                       # Total snoop traffic (bytes)
system.membus.snoop_fanout::samples            359380                       # Request fanout histogram
system.membus.snoop_fanout::mean                    0                       # Request fanout histogram
system.membus.snoop_fanout::stdev                   0                       # Request fanout histogram
system.membus.snoop_fanout::underflows              0      0.00%      0.00% # Request fanout histogram
system.membus.snoop_fanout::0                  359380    100.00%    100.00% # Request fanout histogram
system.membus.snoop_fanout::1                       0      0.00%    100.00% # Request fanout histogram
system.membus.snoop_fanout::overflows               0      0.00%    100.00% # Request fanout histogram
system.membus.snoop_fanout::min_value               0                       # Request fanout histogram
system.membus.snoop_fanout::max_value               0                       # Request fanout histogram
system.membus.snoop_fanout::total              359380                       # Request fanout histogram
system.membus.reqLayer4.occupancy           726479505                       # Layer occupancy (ticks)
system.membus.reqLayer4.utilization               1.1                       # Layer utilization (%)
system.membus.respLayer1.occupancy         1922953014                       # Layer occupancy (ticks)
system.membus.respLayer1.utilization              2.8                       # Layer utilization (%)
system.voltage_domain.voltage                       1                       # Voltage in Volts
system.clk_domain.clock                          1000                       # Clock period in ticks
system.cpu0.numPwrStateTransitions                  1                       # Number of power state transitions
system.cpu0.pwrStateResidencyTicks::ON    67659601005                       # Cumulative time (in ticks) in various power states
system.cpu0.icache.pwrStateResidencyTicks::UNDEFINED  67659601005                       # Cumulative time (in ticks) in various power states
system.cpu0.icache.demand_hits::.cpu0.inst     38901902                       # number of demand (read+write) hits
system.cpu0.icache.demand_hits::total        38901902                       # number of demand (read+write) hits
system.cpu0.icache.overall_hits::.cpu0.inst     38901902                       # number of overall hits
system.cpu0.icache.overall_hits::total       38901902                       # number of overall hits
system.cpu0.icache.demand_misses::.cpu0.inst          449                       # number of demand (read+write) misses
system.cpu0.icache.demand_misses::total           449                       # number of demand (read+write) misses
system.cpu0.icache.overall_misses::.cpu0.inst          449                       # number of overall misses
system.cpu0.icache.overall_misses::total          449                       # number of overall misses
system.cpu0.icache.demand_miss_latency::.cpu0.inst     37746216                       # number of demand (read+write) miss cycles
system.cpu0.icache.demand_miss_latency::total     37746216                       # number of demand (read+write) miss cycles
system.cpu0.icache.overall_miss_latency::.cpu0.inst     37746216                       # number of overall miss cycles
system.cpu0.icache.overall_miss_latency::total     37746216                       # number of overall miss cycles
system.cpu0.icache.demand_accesses::.cpu0.inst     38902351                       # number of demand (read+write) accesses
system.cpu0.icache.demand_accesses::total     38902351                       # number of demand (read+write) accesses
system.cpu0.icache.overall_accesses::.cpu0.inst     38902351                       # number of overall (read+write) accesses
system.cpu0.icache.overall_accesses::total     38902351                       # number of overall (read+write) accesses
system.cpu0.icache.demand_miss_rate::.cpu0.inst     0.000012                       # miss rate for demand accesses
system.cpu0.icache.demand_miss_rate::total     0.000012                       # miss rate for demand accesses
system.cpu0.icache.overall_miss_rate::.cpu0.inst     0.000012                       # miss rate for overall accesses
system.cpu0.icache.overall_miss_rate::total     0.000012                       # miss rate for overall accesses
system.cpu0.icache.demand_avg_miss_latency::.cpu0.inst 84067.296214                       # average overall miss latency
system.cpu0.icache.demand_avg_miss_latency::total 84067.296214                       # average overall miss latency
system.cpu0.icache.overall_avg_miss_latency::.cpu0.inst 84067.296214                       # average overall miss latency
system.cpu0.icache.overall_avg_miss_latency::total 84067.296214                       # average overall miss latency
system.cpu0.icache.blocked_cycles::no_mshrs            0                       # number of cycles access was blocked
system.cpu0.icache.blocked_cycles::no_targets            0                       # number of cycles access was blocked
system.cpu0.icache.blocked::no_mshrs                0                       # number of cycles access was blocked
system.cpu0.icache.blocked::no_targets              0                       # number of cycles access was blocked
system.cpu0.icache.avg_blocked_cycles::no_mshrs          nan                       # average number of cycles each access was blocked
system.cpu0.icache.avg_blocked_cycles::no_targets          nan                       # average number of cycles each access was blocked
system.cpu0.icache.writebacks::.writebacks           18                       # number of writebacks
system.cpu0.icache.writebacks::total               18                       # number of writebacks
system.cpu0.icache.demand_mshr_misses::.cpu0.inst          449                       # number of demand (read+write) MSHR misses
system.cpu0.icache.demand_mshr_misses::total          449                       # number of demand (read+write) MSHR misses
system.cpu0.icache.overall_mshr_misses::.cpu0.inst          449                       # number of overall MSHR misses
system.cpu0.icache.overall_mshr_misses::total          449                       # number of overall MSHR misses
system.cpu0.icache.demand_mshr_miss_latency::.cpu0.inst     37447182                       # number of demand (read+write) MSHR miss cycles
system.cpu0.icache.demand_mshr_miss_latency::total     37447182                       # number of demand (read+write) MSHR miss cycles
system.cpu0.icache.overall_mshr_miss_latency::.cpu0.inst     37447182                       # number of overall MSHR miss cycles
system.cpu0.icache.overall_mshr_miss_latency::total     37447182                       # number of overall MSHR miss cycles
system.cpu0.icache.demand_mshr_miss_rate::.cpu0.inst     0.000012                       # mshr miss rate for demand accesses
system.cpu0.icache.demand_mshr_miss_rate::total     0.000012                       # mshr miss rate for demand accesses
system.cpu0.icache.overall_mshr_miss_rate::.cpu0.inst     0.000012                       # mshr miss rate for overall accesses
system.cpu0.icache.overall_mshr_miss_rate::total     0.000012                       # mshr miss rate for overall accesses
system.cpu0.icache.demand_avg_mshr_miss_latency::.cpu0.inst 83401.296214                       # average overall mshr miss latency
system.cpu0.icache.demand_avg_mshr_miss_latency::total 83401.296214                       # average overall mshr miss latency
system.cpu0.icache.overall_avg_mshr_miss_latency::.cpu0.inst 83401.296214                       # average overall mshr miss latency
system.cpu0.icache.overall_avg_mshr_miss_latency::total 83401.296214                       # average overall mshr miss latency
system.cpu0.icache.replacements                    18                       # number of replacements
system.cpu0.icache.ReadReq_hits::.cpu0.inst     38901902                       # number of ReadReq hits
system.cpu0.icache.ReadReq_hits::total       38901902                       # number of ReadReq hits
system.cpu0.icache.ReadReq_misses::.cpu0.inst          449                       # number of ReadReq misses
system.cpu0.icache.ReadReq_misses::total          449                       # number of ReadReq misses
system.cpu0.icache.ReadReq_miss_latency::.cpu0.inst     37746216                       # number of ReadReq miss cycles
system.cpu0.icache.ReadReq_miss_latency::total     37746216                       # number of ReadReq miss cycles
system.cpu0.icache.ReadReq_accesses::.cpu0.inst     38902351                       # number of ReadReq accesses(hits+misses)
system.cpu0.icache.ReadReq_accesses::total     38902351                       # number of ReadReq accesses(hits+misses)
system.cpu0.icache.ReadReq_miss_rate::.cpu0.inst     0.000012                       # miss rate for ReadReq accesses
system.cpu0.icache.ReadReq_miss_rate::total     0.000012                       # miss rate for ReadReq accesses
system.cpu0.icache.ReadReq_avg_miss_latency::.cpu0.inst 84067.296214                       # average ReadReq miss latency
system.cpu0.icache.ReadReq_avg_miss_latency::total 84067.296214                       # average ReadReq miss latency
system.cpu0.icache.ReadReq_mshr_misses::.cpu0.inst          449                       # number of ReadReq MSHR misses
system.cpu0.icache.ReadReq_mshr_misses::total          449                       # number of ReadReq MSHR misses
system.cpu0.icache.ReadReq_mshr_miss_latency::.cpu0.inst     37447182                       # number of ReadReq MSHR miss cycles
system.cpu0.icache.ReadReq_mshr_miss_latency::total     37447182                       # number of ReadReq MSHR miss cycles
system.cpu0.icache.ReadReq_mshr_miss_rate::.cpu0.inst     0.000012                       # mshr miss rate for ReadReq accesses
system.cpu0.icache.ReadReq_mshr_miss_rate::total     0.000012                       # mshr miss rate for ReadReq accesses
system.cpu0.icache.ReadReq_avg_mshr_miss_latency::.cpu0.inst 83401.296214                       # average ReadReq mshr miss latency
system.cpu0.icache.ReadReq_avg_mshr_miss_latency::total 83401.296214                       # average ReadReq mshr miss latency
system.cpu0.icache.tags.pwrStateResidencyTicks::UNDEFINED  67659601005                       # Cumulative time (in ticks) in various power states
system.cpu0.icache.tags.tagsinuse          347.854605                       # Cycle average of tags in use
system.cpu0.icache.tags.total_refs           38902351                       # Total number of references to valid blocks.
system.cpu0.icache.tags.sampled_refs              449                       # Sample count of references to valid blocks.
system.cpu0.icache.tags.avg_refs         86642.207127                       # Average number of references to valid blocks.
system.cpu0.icache.tags.warmup_cycle            83250                       # Cycle when the warmup percentage was hit.
system.cpu0.icache.tags.occ_blocks::.cpu0.inst   347.854605                       # Average occupied blocks per requestor
system.cpu0.icache.tags.occ_percent::.cpu0.inst     0.679404                       # Average percentage of cache occupancy
system.cpu0.icache.tags.occ_percent::total     0.679404                       # Average percentage of cache occupancy
system.cpu0.icache.tags.occ_task_id_blocks::1024          431                       # Occupied blocks per task id
system.cpu0.icache.tags.age_task_id_blocks_1024::0           65                       # Occupied blocks per task id
system.cpu0.icache.tags.age_task_id_blocks_1024::1           31                       # Occupied blocks per task id
system.cpu0.icache.tags.age_task_id_blocks_1024::4          335                       # Occupied blocks per task id
system.cpu0.icache.tags.occ_task_id_percent::1024     0.841797                       # Percentage of cache occupancy per task id
system.cpu0.icache.tags.tag_accesses        311219257                       # Number of tag accesses
system.cpu0.icache.tags.data_accesses       311219257                       # Number of data accesses
system.cpu0.icache.tags.repl_invalid                0                       # Number of initial replacements
system.cpu0.icache.tags.repl_valid_tag              0                       # Number of local replacements
system.cpu0.icache.tags.repl_valid_data             0                       # Number of global replacements
system.cpu0.dtb.walker.pwrStateResidencyTicks::UNDEFINED  67659601005                       # Cumulative time (in ticks) in various power states
system.cpu0.interrupts.clk_domain.clock          5328                       # Clock period in ticks
system.cpu0.itb_walker_cache.pwrStateResidencyTicks::UNDEFINED  67659601005                       # Cumulative time (in ticks) in various power states
system.cpu0.itb_walker_cache.blocked_cycles::no_mshrs            0                       # number of cycles access was blocked
system.cpu0.itb_walker_cache.blocked_cycles::no_targets            0                       # number of cycles access was blocked
system.cpu0.itb_walker_cache.blocked::no_mshrs            0                       # number of cycles access was blocked
system.cpu0.itb_walker_cache.blocked::no_targets            0                       # number of cycles access was blocked
system.cpu0.itb_walker_cache.avg_blocked_cycles::no_mshrs          nan                       # average number of cycles each access was blocked
system.cpu0.itb_walker_cache.avg_blocked_cycles::no_targets          nan                       # average number of cycles each access was blocked
system.cpu0.itb_walker_cache.replacements            0                       # number of replacements
system.cpu0.itb_walker_cache.tags.pwrStateResidencyTicks::UNDEFINED  67659601005                       # Cumulative time (in ticks) in various power states
system.cpu0.itb_walker_cache.tags.tagsinuse            0                       # Cycle average of tags in use
system.cpu0.itb_walker_cache.tags.total_refs            0                       # Total number of references to valid blocks.
system.cpu0.itb_walker_cache.tags.sampled_refs            0                       # Sample count of references to valid blocks.
system.cpu0.itb_walker_cache.tags.avg_refs          nan                       # Average number of references to valid blocks.
system.cpu0.itb_walker_cache.tags.warmup_cycle            0                       # Cycle when the warmup percentage was hit.
system.cpu0.itb_walker_cache.tags.tag_accesses            0                       # Number of tag accesses
system.cpu0.itb_walker_cache.tags.data_accesses            0                       # Number of data accesses
system.cpu0.itb_walker_cache.tags.repl_invalid            0                       # Number of initial replacements
system.cpu0.itb_walker_cache.tags.repl_valid_tag            0                       # Number of local replacements
system.cpu0.itb_walker_cache.tags.repl_valid_data            0                       # Number of global replacements
system.cpu0.itb.walker.pwrStateResidencyTicks::UNDEFINED  67659601005                       # Cumulative time (in ticks) in various power states
system.cpu0.dtb_walker_cache.pwrStateResidencyTicks::UNDEFINED  67659601005                       # Cumulative time (in ticks) in various power states
system.cpu0.dtb_walker_cache.blocked_cycles::no_mshrs            0                       # number of cycles access was blocked
system.cpu0.dtb_walker_cache.blocked_cycles::no_targets            0                       # number of cycles access was blocked
system.cpu0.dtb_walker_cache.blocked::no_mshrs            0                       # number of cycles access was blocked
system.cpu0.dtb_walker_cache.blocked::no_targets            0                       # number of cycles access was blocked
system.cpu0.dtb_walker_cache.avg_blocked_cycles::no_mshrs          nan                       # average number of cycles each access was blocked
system.cpu0.dtb_walker_cache.avg_blocked_cycles::no_targets          nan                       # average number of cycles each access was blocked
system.cpu0.dtb_walker_cache.replacements            0                       # number of replacements
system.cpu0.dtb_walker_cache.tags.pwrStateResidencyTicks::UNDEFINED  67659601005                       # Cumulative time (in ticks) in various power states
system.cpu0.dtb_walker_cache.tags.tagsinuse            0                       # Cycle average of tags in use
system.cpu0.dtb_walker_cache.tags.total_refs            0                       # Total number of references to valid blocks.
system.cpu0.dtb_walker_cache.tags.sampled_refs            0                       # Sample count of references to valid blocks.
system.cpu0.dtb_walker_cache.tags.avg_refs          nan                       # Average number of references to valid blocks.
system.cpu0.dtb_walker_cache.tags.warmup_cycle            0                       # Cycle when the warmup percentage was hit.
system.cpu0.dtb_walker_cache.tags.tag_accesses            0                       # Number of tag accesses
system.cpu0.dtb_walker_cache.tags.data_accesses            0                       # Number of data accesses
system.cpu0.dtb_walker_cache.tags.repl_invalid            0                       # Number of initial replacements
system.cpu0.dtb_walker_cache.tags.repl_valid_tag            0                       # Number of local replacements
system.cpu0.dtb_walker_cache.tags.repl_valid_data            0                       # Number of global replacements
system.cpu0.dcache.pwrStateResidencyTicks::UNDEFINED  67659601005                       # Cumulative time (in ticks) in various power states
system.cpu0.dcache.demand_hits::.cpu0.data     16322542                       # number of demand (read+write) hits
system.cpu0.dcache.demand_hits::total        16322542                       # number of demand (read+write) hits
system.cpu0.dcache.overall_hits::.cpu0.data     16322542                       # number of overall hits
system.cpu0.dcache.overall_hits::total       16322542                       # number of overall hits
system.cpu0.dcache.demand_misses::.cpu0.data       347916                       # number of demand (read+write) misses
system.cpu0.dcache.demand_misses::total        347916                       # number of demand (read+write) misses
system.cpu0.dcache.overall_misses::.cpu0.data       347916                       # number of overall misses
system.cpu0.dcache.overall_misses::total       347916                       # number of overall misses
system.cpu0.dcache.demand_miss_latency::.cpu0.data  30842398395                       # number of demand (read+write) miss cycles
system.cpu0.dcache.demand_miss_latency::total  30842398395                       # number of demand (read+write) miss cycles
system.cpu0.dcache.overall_miss_latency::.cpu0.data  30842398395                       # number of overall miss cycles
system.cpu0.dcache.overall_miss_latency::total  30842398395                       # number of overall miss cycles
system.cpu0.dcache.demand_accesses::.cpu0.data     16670458                       # number of demand (read+write) accesses
system.cpu0.dcache.demand_accesses::total     16670458                       # number of demand (read+write) accesses
system.cpu0.dcache.overall_accesses::.cpu0.data     16670458                       # number of overall (read+write) accesses
system.cpu0.dcache.overall_accesses::total     16670458                       # number of overall (read+write) accesses
system.cpu0.dcache.demand_miss_rate::.cpu0.data     0.020870                       # miss rate for demand accesses
system.cpu0.dcache.demand_miss_rate::total     0.020870                       # miss rate for demand accesses
system.cpu0.dcache.overall_miss_rate::.cpu0.data     0.020870                       # miss rate for overall accesses
system.cpu0.dcache.overall_miss_rate::total     0.020870                       # miss rate for overall accesses
system.cpu0.dcache.demand_avg_miss_latency::.cpu0.data 88648.979624                       # average overall miss latency
system.cpu0.dcache.demand_avg_miss_latency::total 88648.979624                       # average overall miss latency
system.cpu0.dcache.overall_avg_miss_latency::.cpu0.data 88648.979624                       # average overall miss latency
system.cpu0.dcache.overall_avg_miss_latency::total 88648.979624                       # average overall miss latency
system.cpu0.dcache.blocked_cycles::no_mshrs            0                       # number of cycles access was blocked
system.cpu0.dcache.blocked_cycles::no_targets            0                       # number of cycles access was blocked
system.cpu0.dcache.blocked::no_mshrs                0                       # number of cycles access was blocked
system.cpu0.dcache.blocked::no_targets              0                       # number of cycles access was blocked
system.cpu0.dcache.avg_blocked_cycles::no_mshrs          nan                       # average number of cycles each access was blocked
system.cpu0.dcache.avg_blocked_cycles::no_targets          nan                       # average number of cycles each access was blocked
system.cpu0.dcache.writebacks::.writebacks          526                       # number of writebacks
system.cpu0.dcache.writebacks::total              526                       # number of writebacks
system.cpu0.dcache.demand_mshr_misses::.cpu0.data       347916                       # number of demand (read+write) MSHR misses
system.cpu0.dcache.demand_mshr_misses::total       347916                       # number of demand (read+write) MSHR misses
system.cpu0.dcache.overall_mshr_misses::.cpu0.data       347916                       # number of overall MSHR misses
system.cpu0.dcache.overall_mshr_misses::total       347916                       # number of overall MSHR misses
system.cpu0.dcache.demand_mshr_miss_latency::.cpu0.data  30610686339                       # number of demand (read+write) MSHR miss cycles
system.cpu0.dcache.demand_mshr_miss_latency::total  30610686339                       # number of demand (read+write) MSHR miss cycles
system.cpu0.dcache.overall_mshr_miss_latency::.cpu0.data  30610686339                       # number of overall MSHR miss cycles
system.cpu0.dcache.overall_mshr_miss_latency::total  30610686339                       # number of overall MSHR miss cycles
system.cpu0.dcache.demand_mshr_miss_rate::.cpu0.data     0.020870                       # mshr miss rate for demand accesses
system.cpu0.dcache.demand_mshr_miss_rate::total     0.020870                       # mshr miss rate for demand accesses
system.cpu0.dcache.overall_mshr_miss_rate::.cpu0.data     0.020870                       # mshr miss rate for overall accesses
system.cpu0.dcache.overall_mshr_miss_rate::total     0.020870                       # mshr miss rate for overall accesses
system.cpu0.dcache.demand_avg_mshr_miss_latency::.cpu0.data 87982.979624                       # average overall mshr miss latency
system.cpu0.dcache.demand_avg_mshr_miss_latency::total 87982.979624                       # average overall mshr miss latency
system.cpu0.dcache.overall_avg_mshr_miss_latency::.cpu0.data 87982.979624                       # average overall mshr miss latency
system.cpu0.dcache.overall_avg_mshr_miss_latency::total 87982.979624                       # average overall mshr miss latency
system.cpu0.dcache.replacements                347908                       # number of replacements
system.cpu0.dcache.ReadReq_hits::.cpu0.data     10765403                       # number of ReadReq hits
system.cpu0.dcache.ReadReq_hits::total       10765403                       # number of ReadReq hits
system.cpu0.dcache.ReadReq_misses::.cpu0.data       347660                       # number of ReadReq misses
system.cpu0.dcache.ReadReq_misses::total       347660                       # number of ReadReq misses
system.cpu0.dcache.ReadReq_miss_latency::.cpu0.data  30830475330                       # number of ReadReq miss cycles
system.cpu0.dcache.ReadReq_miss_latency::total  30830475330                       # number of ReadReq miss cycles
system.cpu0.dcache.ReadReq_accesses::.cpu0.data     11113063                       # number of ReadReq accesses(hits+misses)
system.cpu0.dcache.ReadReq_accesses::total     11113063                       # number of ReadReq accesses(hits+misses)
system.cpu0.dcache.ReadReq_miss_rate::.cpu0.data     0.031284                       # miss rate for ReadReq accesses
system.cpu0.dcache.ReadReq_miss_rate::total     0.031284                       # miss rate for ReadReq accesses
system.cpu0.dcache.ReadReq_avg_miss_latency::.cpu0.data 88679.961255                       # average ReadReq miss latency
system.cpu0.dcache.ReadReq_avg_miss_latency::total 88679.961255                       # average ReadReq miss latency
system.cpu0.dcache.ReadReq_mshr_misses::.cpu0.data       347660                       # number of ReadReq MSHR misses
system.cpu0.dcache.ReadReq_mshr_misses::total       347660                       # number of ReadReq MSHR misses
system.cpu0.dcache.ReadReq_mshr_miss_latency::.cpu0.data  30598933770                       # number of ReadReq MSHR miss cycles
system.cpu0.dcache.ReadReq_mshr_miss_latency::total  30598933770                       # number of ReadReq MSHR miss cycles
system.cpu0.dcache.ReadReq_mshr_miss_rate::.cpu0.data     0.031284                       # mshr miss rate for ReadReq accesses
system.cpu0.dcache.ReadReq_mshr_miss_rate::total     0.031284                       # mshr miss rate for ReadReq accesses
system.cpu0.dcache.ReadReq_avg_mshr_miss_latency::.cpu0.data 88013.961255                       # average ReadReq mshr miss latency
system.cpu0.dcache.ReadReq_avg_mshr_miss_latency::total 88013.961255                       # average ReadReq mshr miss latency
system.cpu0.dcache.WriteReq_hits::.cpu0.data      5557139                       # number of WriteReq hits
system.cpu0.dcache.WriteReq_hits::total       5557139                       # number of WriteReq hits
system.cpu0.dcache.WriteReq_misses::.cpu0.data          256                       # number of WriteReq misses
system.cpu0.dcache.WriteReq_misses::total          256                       # number of WriteReq misses
system.cpu0.dcache.WriteReq_miss_latency::.cpu0.data     11923065                       # number of WriteReq miss cycles
system.cpu0.dcache.WriteReq_miss_latency::total     11923065                       # number of WriteReq miss cycles
system.cpu0.dcache.WriteReq_accesses::.cpu0.data      5557395                       # number of WriteReq accesses(hits+misses)
system.cpu0.dcache.WriteReq_accesses::total      5557395                       # number of WriteReq accesses(hits+misses)
system.cpu0.dcache.WriteReq_miss_rate::.cpu0.data     0.000046                       # miss rate for WriteReq accesses
system.cpu0.dcache.WriteReq_miss_rate::total     0.000046                       # miss rate for WriteReq accesses
system.cpu0.dcache.WriteReq_avg_miss_latency::.cpu0.data 46574.472656                       # average WriteReq miss latency
system.cpu0.dcache.WriteReq_avg_miss_latency::total 46574.472656                       # average WriteReq miss latency
system.cpu0.dcache.WriteReq_mshr_misses::.cpu0.data          256                       # number of WriteReq MSHR misses
system.cpu0.dcache.WriteReq_mshr_misses::total          256                       # number of WriteReq MSHR misses
system.cpu0.dcache.WriteReq_mshr_miss_latency::.cpu0.data     11752569                       # number of WriteReq MSHR miss cycles
system.cpu0.dcache.WriteReq_mshr_miss_latency::total     11752569                       # number of WriteReq MSHR miss cycles
system.cpu0.dcache.WriteReq_mshr_miss_rate::.cpu0.data     0.000046                       # mshr miss rate for WriteReq accesses
system.cpu0.dcache.WriteReq_mshr_miss_rate::total     0.000046                       # mshr miss rate for WriteReq accesses
system.cpu0.dcache.WriteReq_avg_mshr_miss_latency::.cpu0.data 45908.472656                       # average WriteReq mshr miss latency
system.cpu0.dcache.WriteReq_avg_mshr_miss_latency::total 45908.472656                       # average WriteReq mshr miss latency
system.cpu0.dcache.tags.pwrStateResidencyTicks::UNDEFINED  67659601005                       # Cumulative time (in ticks) in various power states
system.cpu0.dcache.tags.tagsinuse            7.999914                       # Cycle average of tags in use
system.cpu0.dcache.tags.total_refs           16670458                       # Total number of references to valid blocks.
system.cpu0.dcache.tags.sampled_refs           347916                       # Sample count of references to valid blocks.
system.cpu0.dcache.tags.avg_refs            47.915181                       # Average number of references to valid blocks.
system.cpu0.dcache.tags.warmup_cycle           166167                       # Cycle when the warmup percentage was hit.
system.cpu0.dcache.tags.occ_blocks::.cpu0.data     7.999914                       # Average occupied blocks per requestor
system.cpu0.dcache.tags.occ_percent::.cpu0.data     0.999989                       # Average percentage of cache occupancy
system.cpu0.dcache.tags.occ_percent::total     0.999989                       # Average percentage of cache occupancy
system.cpu0.dcache.tags.occ_task_id_blocks::1024            8                       # Occupied blocks per task id
system.cpu0.dcache.tags.age_task_id_blocks_1024::0            8                       # Occupied blocks per task id
system.cpu0.dcache.tags.occ_task_id_percent::1024            1                       # Percentage of cache occupancy per task id
system.cpu0.dcache.tags.tag_accesses        133711580                       # Number of tag accesses
system.cpu0.dcache.tags.data_accesses       133711580                       # Number of data accesses
system.cpu0.dcache.tags.repl_invalid                0                       # Number of initial replacements
system.cpu0.dcache.tags.repl_valid_tag              0                       # Number of local replacements
system.cpu0.dcache.tags.repl_valid_data             0                       # Number of global replacements
system.cpu1.numPwrStateTransitions                  1                       # Number of power state transitions
system.cpu1.pwrStateResidencyTicks::ON    67659601005                       # Cumulative time (in ticks) in various power states
system.cpu1.icache.pwrStateResidencyTicks::UNDEFINED  67659601005                       # Cumulative time (in ticks) in various power states
system.cpu1.icache.demand_hits::.cpu1.inst     14833150                       # number of demand (read+write) hits
system.cpu1.icache.demand_hits::total        14833150                       # number of demand (read+write) hits
system.cpu1.icache.overall_hits::.cpu1.inst     14833150                       # number of overall hits
system.cpu1.icache.overall_hits::total       14833150                       # number of overall hits
system.cpu1.icache.demand_misses::.cpu1.inst         3807                       # number of demand (read+write) misses
system.cpu1.icache.demand_misses::total          3807                       # number of demand (read+write) misses
system.cpu1.icache.overall_misses::.cpu1.inst         3807                       # number of overall misses
system.cpu1.icache.overall_misses::total         3807                       # number of overall misses
system.cpu1.icache.demand_miss_latency::.cpu1.inst    231159942                       # number of demand (read+write) miss cycles
system.cpu1.icache.demand_miss_latency::total    231159942                       # number of demand (read+write) miss cycles
system.cpu1.icache.overall_miss_latency::.cpu1.inst    231159942                       # number of overall miss cycles
system.cpu1.icache.overall_miss_latency::total    231159942                       # number of overall miss cycles
system.cpu1.icache.demand_accesses::.cpu1.inst     14836957                       # number of demand (read+write) accesses
system.cpu1.icache.demand_accesses::total     14836957                       # number of demand (read+write) accesses
system.cpu1.icache.overall_accesses::.cpu1.inst     14836957                       # number of overall (read+write) accesses
system.cpu1.icache.overall_accesses::total     14836957                       # number of overall (read+write) accesses
system.cpu1.icache.demand_miss_rate::.cpu1.inst     0.000257                       # miss rate for demand accesses
system.cpu1.icache.demand_miss_rate::total     0.000257                       # miss rate for demand accesses
system.cpu1.icache.overall_miss_rate::.cpu1.inst     0.000257                       # miss rate for overall accesses
system.cpu1.icache.overall_miss_rate::total     0.000257                       # miss rate for overall accesses
system.cpu1.icache.demand_avg_miss_latency::.cpu1.inst 60719.711584                       # average overall miss latency
system.cpu1.icache.demand_avg_miss_latency::total 60719.711584                       # average overall miss latency
system.cpu1.icache.overall_avg_miss_latency::.cpu1.inst 60719.711584                       # average overall miss latency
system.cpu1.icache.overall_avg_miss_latency::total 60719.711584                       # average overall miss latency
system.cpu1.icache.blocked_cycles::no_mshrs            0                       # number of cycles access was blocked
system.cpu1.icache.blocked_cycles::no_targets            0                       # number of cycles access was blocked
system.cpu1.icache.blocked::no_mshrs                0                       # number of cycles access was blocked
system.cpu1.icache.blocked::no_targets              0                       # number of cycles access was blocked
system.cpu1.icache.avg_blocked_cycles::no_mshrs          nan                       # average number of cycles each access was blocked
system.cpu1.icache.avg_blocked_cycles::no_targets          nan                       # average number of cycles each access was blocked
system.cpu1.icache.writebacks::.writebacks         3295                       # number of writebacks
system.cpu1.icache.writebacks::total             3295                       # number of writebacks
system.cpu1.icache.demand_mshr_misses::.cpu1.inst         3807                       # number of demand (read+write) MSHR misses
system.cpu1.icache.demand_mshr_misses::total         3807                       # number of demand (read+write) MSHR misses
system.cpu1.icache.overall_mshr_misses::.cpu1.inst         3807                       # number of overall MSHR misses
system.cpu1.icache.overall_mshr_misses::total         3807                       # number of overall MSHR misses
system.cpu1.icache.demand_mshr_miss_latency::.cpu1.inst    228624480                       # number of demand (read+write) MSHR miss cycles
system.cpu1.icache.demand_mshr_miss_latency::total    228624480                       # number of demand (read+write) MSHR miss cycles
system.cpu1.icache.overall_mshr_miss_latency::.cpu1.inst    228624480                       # number of overall MSHR miss cycles
system.cpu1.icache.overall_mshr_miss_latency::total    228624480                       # number of overall MSHR miss cycles
system.cpu1.icache.demand_mshr_miss_rate::.cpu1.inst     0.000257                       # mshr miss rate for demand accesses
system.cpu1.icache.demand_mshr_miss_rate::total     0.000257                       # mshr miss rate for demand accesses
system.cpu1.icache.overall_mshr_miss_rate::.cpu1.inst     0.000257                       # mshr miss rate for overall accesses
system.cpu1.icache.overall_mshr_miss_rate::total     0.000257                       # mshr miss rate for overall accesses
system.cpu1.icache.demand_avg_mshr_miss_latency::.cpu1.inst 60053.711584                       # average overall mshr miss latency
system.cpu1.icache.demand_avg_mshr_miss_latency::total 60053.711584                       # average overall mshr miss latency
system.cpu1.icache.overall_avg_mshr_miss_latency::.cpu1.inst 60053.711584                       # average overall mshr miss latency
system.cpu1.icache.overall_avg_mshr_miss_latency::total 60053.711584                       # average overall mshr miss latency
system.cpu1.icache.replacements                  3295                       # number of replacements
system.cpu1.icache.ReadReq_hits::.cpu1.inst     14833150                       # number of ReadReq hits
system.cpu1.icache.ReadReq_hits::total       14833150                       # number of ReadReq hits
system.cpu1.icache.ReadReq_misses::.cpu1.inst         3807                       # number of ReadReq misses
system.cpu1.icache.ReadReq_misses::total         3807                       # number of ReadReq misses
system.cpu1.icache.ReadReq_miss_latency::.cpu1.inst    231159942                       # number of ReadReq miss cycles
system.cpu1.icache.ReadReq_miss_latency::total    231159942                       # number of ReadReq miss cycles
system.cpu1.icache.ReadReq_accesses::.cpu1.inst     14836957                       # number of ReadReq accesses(hits+misses)
system.cpu1.icache.ReadReq_accesses::total     14836957                       # number of ReadReq accesses(hits+misses)
system.cpu1.icache.ReadReq_miss_rate::.cpu1.inst     0.000257                       # miss rate for ReadReq accesses
system.cpu1.icache.ReadReq_miss_rate::total     0.000257                       # miss rate for ReadReq accesses
system.cpu1.icache.ReadReq_avg_miss_latency::.cpu1.inst 60719.711584                       # average ReadReq miss latency
system.cpu1.icache.ReadReq_avg_miss_latency::total 60719.711584                       # average ReadReq miss latency
system.cpu1.icache.ReadReq_mshr_misses::.cpu1.inst         3807                       # number of ReadReq MSHR misses
system.cpu1.icache.ReadReq_mshr_misses::total         3807                       # number of ReadReq MSHR misses
system.cpu1.icache.ReadReq_mshr_miss_latency::.cpu1.inst    228624480                       # number of ReadReq MSHR miss cycles
system.cpu1.icache.ReadReq_mshr_miss_latency::total    228624480                       # number of ReadReq MSHR miss cycles
system.cpu1.icache.ReadReq_mshr_miss_rate::.cpu1.inst     0.000257                       # mshr miss rate for ReadReq accesses
system.cpu1.icache.ReadReq_mshr_miss_rate::total     0.000257                       # mshr miss rate for ReadReq accesses
system.cpu1.icache.ReadReq_avg_mshr_miss_latency::.cpu1.inst 60053.711584                       # average ReadReq mshr miss latency
system.cpu1.icache.ReadReq_avg_mshr_miss_latency::total 60053.711584                       # average ReadReq mshr miss latency
system.cpu1.icache.tags.pwrStateResidencyTicks::UNDEFINED  67659601005                       # Cumulative time (in ticks) in various power states
system.cpu1.icache.tags.tagsinuse          511.578824                       # Cycle average of tags in use
system.cpu1.icache.tags.total_refs           14836957                       # Total number of references to valid blocks.
system.cpu1.icache.tags.sampled_refs             3807                       # Sample count of references to valid blocks.
system.cpu1.icache.tags.avg_refs          3897.283163                       # Average number of references to valid blocks.
system.cpu1.icache.tags.warmup_cycle            88245                       # Cycle when the warmup percentage was hit.
system.cpu1.icache.tags.occ_blocks::.cpu1.inst   511.578824                       # Average occupied blocks per requestor
system.cpu1.icache.tags.occ_percent::.cpu1.inst     0.999177                       # Average percentage of cache occupancy
system.cpu1.icache.tags.occ_percent::total     0.999177                       # Average percentage of cache occupancy
system.cpu1.icache.tags.occ_task_id_blocks::1024          512                       # Occupied blocks per task id
system.cpu1.icache.tags.age_task_id_blocks_1024::4          512                       # Occupied blocks per task id
system.cpu1.icache.tags.occ_task_id_percent::1024            1                       # Percentage of cache occupancy per task id
system.cpu1.icache.tags.tag_accesses        118699463                       # Number of tag accesses
system.cpu1.icache.tags.data_accesses       118699463                       # Number of data accesses
system.cpu1.icache.tags.repl_invalid                0                       # Number of initial replacements
system.cpu1.icache.tags.repl_valid_tag              0                       # Number of local replacements
system.cpu1.icache.tags.repl_valid_data             0                       # Number of global replacements
system.cpu1.dtb.walker.pwrStateResidencyTicks::UNDEFINED  67659601005                       # Cumulative time (in ticks) in various power states
system.cpu1.interrupts.clk_domain.clock          5328                       # Clock period in ticks
system.cpu1.itb_walker_cache.pwrStateResidencyTicks::UNDEFINED  67659601005                       # Cumulative time (in ticks) in various power states
system.cpu1.itb_walker_cache.blocked_cycles::no_mshrs            0                       # number of cycles access was blocked
system.cpu1.itb_walker_cache.blocked_cycles::no_targets            0                       # number of cycles access was blocked
system.cpu1.itb_walker_cache.blocked::no_mshrs            0                       # number of cycles access was blocked
system.cpu1.itb_walker_cache.blocked::no_targets            0                       # number of cycles access was blocked
system.cpu1.itb_walker_cache.avg_blocked_cycles::no_mshrs          nan                       # average number of cycles each access was blocked
system.cpu1.itb_walker_cache.avg_blocked_cycles::no_targets          nan                       # average number of cycles each access was blocked
system.cpu1.itb_walker_cache.replacements            0                       # number of replacements
system.cpu1.itb_walker_cache.tags.pwrStateResidencyTicks::UNDEFINED  67659601005                       # Cumulative time (in ticks) in various power states
system.cpu1.itb_walker_cache.tags.tagsinuse            0                       # Cycle average of tags in use
system.cpu1.itb_walker_cache.tags.total_refs            0                       # Total number of references to valid blocks.
system.cpu1.itb_walker_cache.tags.sampled_refs            0                       # Sample count of references to valid blocks.
system.cpu1.itb_walker_cache.tags.avg_refs          nan                       # Average number of references to valid blocks.
system.cpu1.itb_walker_cache.tags.warmup_cycle            0                       # Cycle when the warmup percentage was hit.
system.cpu1.itb_walker_cache.tags.tag_accesses            0                       # Number of tag accesses
system.cpu1.itb_walker_cache.tags.data_accesses            0                       # Number of data accesses
system.cpu1.itb_walker_cache.tags.repl_invalid            0                       # Number of initial replacements
system.cpu1.itb_walker_cache.tags.repl_valid_tag            0                       # Number of local replacements
system.cpu1.itb_walker_cache.tags.repl_valid_data            0                       # Number of global replacements
system.cpu1.itb.walker.pwrStateResidencyTicks::UNDEFINED  67659601005                       # Cumulative time (in ticks) in various power states
system.cpu1.dtb_walker_cache.pwrStateResidencyTicks::UNDEFINED  67659601005                       # Cumulative time (in ticks) in various power states
system.cpu1.dtb_walker_cache.blocked_cycles::no_mshrs            0                       # number of cycles access was blocked
system.cpu1.dtb_walker_cache.blocked_cycles::no_targets            0                       # number of cycles access was blocked
system.cpu1.dtb_walker_cache.blocked::no_mshrs            0                       # number of cycles access was blocked
system.cpu1.dtb_walker_cache.blocked::no_targets            0                       # number of cycles access was blocked
system.cpu1.dtb_walker_cache.avg_blocked_cycles::no_mshrs          nan                       # average number of cycles each access was blocked
system.cpu1.dtb_walker_cache.avg_blocked_cycles::no_targets          nan                       # average number of cycles each access was blocked
system.cpu1.dtb_walker_cache.replacements            0                       # number of replacements
system.cpu1.dtb_walker_cache.tags.pwrStateResidencyTicks::UNDEFINED  67659601005                       # Cumulative time (in ticks) in various power states
system.cpu1.dtb_walker_cache.tags.tagsinuse            0                       # Cycle average of tags in use
system.cpu1.dtb_walker_cache.tags.total_refs            0                       # Total number of references to valid blocks.
system.cpu1.dtb_walker_cache.tags.sampled_refs            0                       # Sample count of references to valid blocks.
system.cpu1.dtb_walker_cache.tags.avg_refs          nan                       # Average number of references to valid blocks.
system.cpu1.dtb_walker_cache.tags.warmup_cycle            0                       # Cycle when the warmup percentage was hit.
system.cpu1.dtb_walker_cache.tags.tag_accesses            0                       # Number of tag accesses
system.cpu1.dtb_walker_cache.tags.data_accesses            0                       # Number of data accesses
system.cpu1.dtb_walker_cache.tags.repl_invalid            0                       # Number of initial replacements
system.cpu1.dtb_walker_cache.tags.repl_valid_tag            0                       # Number of local replacements
system.cpu1.dtb_walker_cache.tags.repl_valid_data            0                       # Number of global replacements
system.cpu1.dcache.pwrStateResidencyTicks::UNDEFINED  67659601005                       # Cumulative time (in ticks) in various power states
system.cpu1.dcache.demand_hits::.cpu1.data      3123207                       # number of demand (read+write) hits
system.cpu1.dcache.demand_hits::total         3123207                       # number of demand (read+write) hits
system.cpu1.dcache.overall_hits::.cpu1.data      3123207                       # number of overall hits
system.cpu1.dcache.overall_hits::total        3123207                       # number of overall hits
system.cpu1.dcache.demand_misses::.cpu1.data       391988                       # number of demand (read+write) misses
system.cpu1.dcache.demand_misses::total        391988                       # number of demand (read+write) misses
system.cpu1.dcache.overall_misses::.cpu1.data       391988                       # number of overall misses
system.cpu1.dcache.overall_misses::total       391988                       # number of overall misses
system.cpu1.dcache.demand_miss_latency::.cpu1.data   5045590359                       # number of demand (read+write) miss cycles
system.cpu1.dcache.demand_miss_latency::total   5045590359                       # number of demand (read+write) miss cycles
system.cpu1.dcache.overall_miss_latency::.cpu1.data   5045590359                       # number of overall miss cycles
system.cpu1.dcache.overall_miss_latency::total   5045590359                       # number of overall miss cycles
system.cpu1.dcache.demand_accesses::.cpu1.data      3515195                       # number of demand (read+write) accesses
system.cpu1.dcache.demand_accesses::total      3515195                       # number of demand (read+write) accesses
system.cpu1.dcache.overall_accesses::.cpu1.data      3515195                       # number of overall (read+write) accesses
system.cpu1.dcache.overall_accesses::total      3515195                       # number of overall (read+write) accesses
system.cpu1.dcache.demand_miss_rate::.cpu1.data     0.111512                       # miss rate for demand accesses
system.cpu1.dcache.demand_miss_rate::total     0.111512                       # miss rate for demand accesses
system.cpu1.dcache.overall_miss_rate::.cpu1.data     0.111512                       # miss rate for overall accesses
system.cpu1.dcache.overall_miss_rate::total     0.111512                       # miss rate for overall accesses
system.cpu1.dcache.demand_avg_miss_latency::.cpu1.data 12871.798012                       # average overall miss latency
system.cpu1.dcache.demand_avg_miss_latency::total 12871.798012                       # average overall miss latency
system.cpu1.dcache.overall_avg_miss_latency::.cpu1.data 12871.798012                       # average overall miss latency
system.cpu1.dcache.overall_avg_miss_latency::total 12871.798012                       # average overall miss latency
system.cpu1.dcache.blocked_cycles::no_mshrs            0                       # number of cycles access was blocked
system.cpu1.dcache.blocked_cycles::no_targets            0                       # number of cycles access was blocked
system.cpu1.dcache.blocked::no_mshrs                0                       # number of cycles access was blocked
system.cpu1.dcache.blocked::no_targets              0                       # number of cycles access was blocked
system.cpu1.dcache.avg_blocked_cycles::no_mshrs          nan                       # average number of cycles each access was blocked
system.cpu1.dcache.avg_blocked_cycles::no_targets          nan                       # average number of cycles each access was blocked
system.cpu1.dcache.writebacks::.writebacks       223751                       # number of writebacks
system.cpu1.dcache.writebacks::total           223751                       # number of writebacks
system.cpu1.dcache.demand_mshr_misses::.cpu1.data       391988                       # number of demand (read+write) MSHR misses
system.cpu1.dcache.demand_mshr_misses::total       391988                       # number of demand (read+write) MSHR misses
system.cpu1.dcache.overall_mshr_misses::.cpu1.data       391988                       # number of overall MSHR misses
system.cpu1.dcache.overall_mshr_misses::total       391988                       # number of overall MSHR misses
system.cpu1.dcache.demand_mshr_miss_latency::.cpu1.data   4784526351                       # number of demand (read+write) MSHR miss cycles
system.cpu1.dcache.demand_mshr_miss_latency::total   4784526351                       # number of demand (read+write) MSHR miss cycles
system.cpu1.dcache.overall_mshr_miss_latency::.cpu1.data   4784526351                       # number of overall MSHR miss cycles
system.cpu1.dcache.overall_mshr_miss_latency::total   4784526351                       # number of overall MSHR miss cycles
system.cpu1.dcache.demand_mshr_miss_rate::.cpu1.data     0.111512                       # mshr miss rate for demand accesses
system.cpu1.dcache.demand_mshr_miss_rate::total     0.111512                       # mshr miss rate for demand accesses
system.cpu1.dcache.overall_mshr_miss_rate::.cpu1.data     0.111512                       # mshr miss rate for overall accesses
system.cpu1.dcache.overall_mshr_miss_rate::total     0.111512                       # mshr miss rate for overall accesses
system.cpu1.dcache.demand_avg_mshr_miss_latency::.cpu1.data 12205.798012                       # average overall mshr miss latency
system.cpu1.dcache.demand_avg_mshr_miss_latency::total 12205.798012                       # average overall mshr miss latency
system.cpu1.dcache.overall_avg_mshr_miss_latency::.cpu1.data 12205.798012                       # average overall mshr miss latency
system.cpu1.dcache.overall_avg_mshr_miss_latency::total 12205.798012                       # average overall mshr miss latency
system.cpu1.dcache.replacements                391980                       # number of replacements
system.cpu1.dcache.ReadReq_hits::.cpu1.data      1826726                       # number of ReadReq hits
system.cpu1.dcache.ReadReq_hits::total        1826726                       # number of ReadReq hits
system.cpu1.dcache.ReadReq_misses::.cpu1.data       363352                       # number of ReadReq misses
system.cpu1.dcache.ReadReq_misses::total       363352                       # number of ReadReq misses
system.cpu1.dcache.ReadReq_miss_latency::.cpu1.data   4410467118                       # number of ReadReq miss cycles
system.cpu1.dcache.ReadReq_miss_latency::total   4410467118                       # number of ReadReq miss cycles
system.cpu1.dcache.ReadReq_accesses::.cpu1.data      2190078                       # number of ReadReq accesses(hits+misses)
system.cpu1.dcache.ReadReq_accesses::total      2190078                       # number of ReadReq accesses(hits+misses)
system.cpu1.dcache.ReadReq_miss_rate::.cpu1.data     0.165908                       # miss rate for ReadReq accesses
system.cpu1.dcache.ReadReq_miss_rate::total     0.165908                       # miss rate for ReadReq accesses
system.cpu1.dcache.ReadReq_avg_miss_latency::.cpu1.data 12138.276707                       # average ReadReq miss latency
system.cpu1.dcache.ReadReq_avg_miss_latency::total 12138.276707                       # average ReadReq miss latency
system.cpu1.dcache.ReadReq_mshr_misses::.cpu1.data       363352                       # number of ReadReq MSHR misses
system.cpu1.dcache.ReadReq_mshr_misses::total       363352                       # number of ReadReq MSHR misses
system.cpu1.dcache.ReadReq_mshr_miss_latency::.cpu1.data   4168474686                       # number of ReadReq MSHR miss cycles
system.cpu1.dcache.ReadReq_mshr_miss_latency::total   4168474686                       # number of ReadReq MSHR miss cycles
system.cpu1.dcache.ReadReq_mshr_miss_rate::.cpu1.data     0.165908                       # mshr miss rate for ReadReq accesses
system.cpu1.dcache.ReadReq_mshr_miss_rate::total     0.165908                       # mshr miss rate for ReadReq accesses
system.cpu1.dcache.ReadReq_avg_mshr_miss_latency::.cpu1.data 11472.276707                       # average ReadReq mshr miss latency
system.cpu1.dcache.ReadReq_avg_mshr_miss_latency::total 11472.276707                       # average ReadReq mshr miss latency
system.cpu1.dcache.WriteReq_hits::.cpu1.data      1296481                       # number of WriteReq hits
system.cpu1.dcache.WriteReq_hits::total       1296481                       # number of WriteReq hits
system.cpu1.dcache.WriteReq_misses::.cpu1.data        28636                       # number of WriteReq misses
[...]
system.mem_ctrls.wrQLenPdf::123                     0                       # What write queue length does an incoming req see
system.mem_ctrls.wrQLenPdf::124                     0                       # What write queue length does an incoming req see
system.mem_ctrls.wrQLenPdf::125                     0                       # What write queue length does an incoming req see
system.mem_ctrls.wrQLenPdf::126                     0                       # What write queue length does an incoming req see
system.mem_ctrls.wrQLenPdf::127                     0                       # What write queue length does an incoming req see
system.mem_ctrls.bytesPerActivate::samples       362639                       # Bytes accessed per row activation
system.mem_ctrls.bytesPerActivate::mean            64                       # Bytes accessed per row activation
system.mem_ctrls.bytesPerActivate::gmean    64.000000                       # Bytes accessed per row activation
system.mem_ctrls.bytesPerActivate::64-71       362639    100.00%    100.00% # Bytes accessed per row activation
system.mem_ctrls.bytesPerActivate::total       362639                       # Bytes accessed per row activation
system.mem_ctrls.rdPerTurnAround::samples          193                       # Reads before turning the bus around for writes
system.mem_ctrls.rdPerTurnAround::mean    1857.829016                       # Reads before turning the bus around for writes
system.mem_ctrls.rdPerTurnAround::gmean   1446.963833                       # Reads before turning the bus around for writes
system.mem_ctrls.rdPerTurnAround::stdev   1646.366927                       # Reads before turning the bus around for writes
system.mem_ctrls.rdPerTurnAround::0-511            17      8.81%      8.81% # Reads before turning the bus around for writes
system.mem_ctrls.rdPerTurnAround::512-1023           43     22.28%     31.09% # Reads before turning the bus around for writes
system.mem_ctrls.rdPerTurnAround::1024-1535           41     21.24%     52.33% # Reads before turning the bus around for writes
system.mem_ctrls.rdPerTurnAround::1536-2047           30     15.54%     67.88% # Reads before turning the bus around for writes
system.mem_ctrls.rdPerTurnAround::2048-2559           21     10.88%     78.76% # Reads before turning the bus around for writes
system.mem_ctrls.rdPerTurnAround::2560-3071           16      8.29%     87.05% # Reads before turning the bus around for writes
system.mem_ctrls.rdPerTurnAround::3072-3583            8      4.15%     91.19% # Reads before turning the bus around for writes
system.mem_ctrls.rdPerTurnAround::3584-4095            5      2.59%     93.78% # Reads before turning the bus around for writes
system.mem_ctrls.rdPerTurnAround::4096-4607            3      1.55%     95.34% # Reads before turning the bus around for writes
system.mem_ctrls.rdPerTurnAround::4608-5119            5      2.59%     97.93% # Reads before turning the bus around for writes
system.mem_ctrls.rdPerTurnAround::5120-5631            2      1.04%     98.96% # Reads before turning the bus around for writes
system.mem_ctrls.rdPerTurnAround::5632-6143            1      0.52%     99.48% # Reads before turning the bus around for writes
system.mem_ctrls.rdPerTurnAround::17408-17919            1      0.52%    100.00% # Reads before turning the bus around for writes
system.mem_ctrls.rdPerTurnAround::total           193                       # Reads before turning the bus around for writes
system.mem_ctrls.wrPerTurnAround::samples          193                       # Writes before turning the bus around for reads
system.mem_ctrls.wrPerTurnAround::mean      17.968912                       # Writes before turning the bus around for reads
system.mem_ctrls.wrPerTurnAround::gmean     17.966788                       # Writes before turning the bus around for reads
system.mem_ctrls.wrPerTurnAround::stdev      0.268226                       # Writes before turning the bus around for reads
system.mem_ctrls.wrPerTurnAround::16                3      1.55%      1.55% # Writes before turning the bus around for reads
system.mem_ctrls.wrPerTurnAround::17                1      0.52%      2.07% # Writes before turning the bus around for reads
system.mem_ctrls.wrPerTurnAround::18              188     97.41%     99.48% # Writes before turning the bus around for reads
system.mem_ctrls.wrPerTurnAround::19                1      0.52%    100.00% # Writes before turning the bus around for reads
system.mem_ctrls.wrPerTurnAround::total           193                       # Writes before turning the bus around for reads
system.mem_ctrls.bytesReadDRAM               22986944                       # Total number of bytes read from DRAM
system.mem_ctrls.bytesReadWrQ                   13376                       # Total number of bytes read from write queue
system.mem_ctrls.bytesWritten                  221952                       # Total number of bytes written to DRAM
system.mem_ctrls.bytesReadSys                23000320                       # Total read bytes from the system interface side
system.mem_ctrls.bytesWrittenSys               227520                       # Total written bytes from the system interface side
system.mem_ctrls.avgRdBW                       339.74                       # Average DRAM read bandwidth in MiByte/s
system.mem_ctrls.avgWrBW                         3.28                       # Average achieved write bandwidth in MiByte/s
system.mem_ctrls.avgRdBWSys                    339.94                       # Average system read bandwidth in MiByte/s
system.mem_ctrls.avgWrBWSys                      3.36                       # Average system write bandwidth in MiByte/s
system.mem_ctrls.peakBW                      19207.00                       # Theoretical peak bandwidth in MiByte/s
system.mem_ctrls.busUtil                         1.79                       # Data bus utilization in percentage
system.mem_ctrls.busUtilRead                     1.77                       # Data bus utilization in percentage for reads
system.mem_ctrls.busUtilWrite                    0.02                       # Data bus utilization in percentage for writes
system.mem_ctrls.totGap                   67659519087                       # Total gap between requests
system.mem_ctrls.avgGap                     186423.24                       # Average gap between requests
system.mem_ctrls.masterReadBytes::.cpu0.inst        28736                       # Per-master bytes read from memory
system.mem_ctrls.masterReadBytes::.cpu0.data     22237440                       # Per-master bytes read from memory
system.mem_ctrls.masterReadBytes::.cpu1.inst       164544                       # Per-master bytes read from memory
system.mem_ctrls.masterReadBytes::.cpu1.data       556224                       # Per-master bytes read from memory
system.mem_ctrls.masterWriteBytes::.writebacks       221952                       # Per-master bytes write to memory
system.mem_ctrls.masterReadRate::.cpu0.inst 424714.298830648244                       # Per-master bytes read from memory rate (Bytes/sec)
system.mem_ctrls.masterReadRate::.cpu0.data 328666437.130728363991                       # Per-master bytes read from memory rate (Bytes/sec)
system.mem_ctrls.masterReadRate::.cpu1.inst 2431938.668805337977                       # Per-master bytes read from memory rate (Bytes/sec)
system.mem_ctrls.masterReadRate::.cpu1.data 8220917.530372302979                       # Per-master bytes read from memory rate (Bytes/sec)
system.mem_ctrls.masterWriteRate::.writebacks 3280421.354887946974                       # Per-master bytes write to memory rate (Bytes/sec)
system.mem_ctrls.masterReadAccesses::.cpu0.inst          449                       # Per-master read serviced memory accesses
system.mem_ctrls.masterReadAccesses::.cpu0.data       347460                       # Per-master read serviced memory accesses
system.mem_ctrls.masterReadAccesses::.cpu1.inst         2571                       # Per-master read serviced memory accesses
system.mem_ctrls.masterReadAccesses::.cpu1.data         8900                       # Per-master read serviced memory accesses
system.mem_ctrls.masterWriteAccesses::.writebacks         3555                       # Per-master write serviced memory accesses
system.mem_ctrls.masterReadTotalLat::.cpu0.inst     15873870                       # Per-master read total memory access latency
system.mem_ctrls.masterReadTotalLat::.cpu0.data  13998308326                       # Per-master read total memory access latency
system.mem_ctrls.masterReadTotalLat::.cpu1.inst     92273991                       # Per-master read total memory access latency
system.mem_ctrls.masterReadTotalLat::.cpu1.data    331994135                       # Per-master read total memory access latency
system.mem_ctrls.masterWriteTotalLat::.writebacks 3622033446933                       # Per-master write total memory access latency
system.mem_ctrls.masterReadAvgLat::.cpu0.inst     35353.83                       # Per-master read average memory access latency
system.mem_ctrls.masterReadAvgLat::.cpu0.data     40287.54                       # Per-master read average memory access latency
system.mem_ctrls.masterReadAvgLat::.cpu1.inst     35890.31                       # Per-master read average memory access latency
system.mem_ctrls.masterReadAvgLat::.cpu1.data     37302.71                       # Per-master read average memory access latency
system.mem_ctrls.masterWriteAvgLat::.writebacks 1018856103.22                       # Per-master write average memory access latency
system.mem_ctrls.pageHitRate                     0.00                       # Row buffer hit rate, read and write combined
system.mem_ctrls.rank1.actEnergy         282663409.391986                       # Energy for activate commands per rank (pJ)
system.mem_ctrls.rank1.preEnergy         499009634.272889                       # Energy for precharge commands per rank (pJ)
system.mem_ctrls.rank1.readEnergy        492556698.479955                       # Energy for read commands per rank (pJ)
system.mem_ctrls.rank1.writeEnergy       3991522.752000                       # Energy for write commands per rank (pJ)
system.mem_ctrls.rank1.refreshEnergy     5873184726.023398                       # Energy for refresh commands per rank (pJ)
system.mem_ctrls.rank1.actBackEnergy     4100498024.448051                       # Energy for active background per rank (pJ)
system.mem_ctrls.rank1.preBackEnergy     19253293152.979389                       # Energy for precharge background per rank (pJ)
system.mem_ctrls.rank1.actPowerDownEnergy            0                       # Energy for active power-down per rank (pJ)
system.mem_ctrls.rank1.prePowerDownEnergy            0                       # Energy for precharge power-down per rank (pJ)
system.mem_ctrls.rank1.selfRefreshEnergy            0                       # Energy for self refresh per rank (pJ)
system.mem_ctrls.rank1.totalEnergy       30505197168.348598                       # Total energy per rank (pJ)
system.mem_ctrls.rank1.averagePower        450.862800                       # Core power per rank (mW)
system.mem_ctrls.rank1.totalIdleTime                0                       # Total Idle time Per DRAM Rank
system.mem_ctrls.rank1.memoryStateTime::IDLE  56341011777                       # Time in different power states
system.mem_ctrls.rank1.memoryStateTime::REF   3041500000                       # Time in different power states
system.mem_ctrls.rank1.memoryStateTime::SREF            0                       # Time in different power states
system.mem_ctrls.rank1.memoryStateTime::PRE_PDN            0                       # Time in different power states
system.mem_ctrls.rank1.memoryStateTime::ACT   8277089228                       # Time in different power states
system.mem_ctrls.rank1.memoryStateTime::ACT_PDN            0                       # Time in different power states
system.mem_ctrls.rank0.actEnergy         282827143.871986                       # Energy for activate commands per rank (pJ)
system.mem_ctrls.rank0.preEnergy         499298688.604889                       # Energy for precharge commands per rank (pJ)
system.mem_ctrls.rank0.readEnergy        492614299.430355                       # Energy for read commands per rank (pJ)
system.mem_ctrls.rank0.writeEnergy       4189683.456000                       # Energy for write commands per rank (pJ)
system.mem_ctrls.rank0.refreshEnergy     5873184726.023398                       # Energy for refresh commands per rank (pJ)
system.mem_ctrls.rank0.actBackEnergy     4101039163.905652                       # Energy for active background per rank (pJ)
system.mem_ctrls.rank0.preBackEnergy     19252919574.470722                       # Energy for precharge background per rank (pJ)
system.mem_ctrls.rank0.actPowerDownEnergy            0                       # Energy for active power-down per rank (pJ)
system.mem_ctrls.rank0.prePowerDownEnergy            0                       # Energy for precharge power-down per rank (pJ)
system.mem_ctrls.rank0.selfRefreshEnergy            0                       # Energy for self refresh per rank (pJ)
system.mem_ctrls.rank0.totalEnergy       30506073279.763653                       # Total energy per rank (pJ)
system.mem_ctrls.rank0.averagePower        450.875749                       # Core power per rank (mW)
system.mem_ctrls.rank0.totalIdleTime                0                       # Total Idle time Per DRAM Rank
system.mem_ctrls.rank0.memoryStateTime::IDLE  56340214099                       # Time in different power states
system.mem_ctrls.rank0.memoryStateTime::REF   3041500000                       # Time in different power states
system.mem_ctrls.rank0.memoryStateTime::SREF            0                       # Time in different power states
system.mem_ctrls.rank0.memoryStateTime::PRE_PDN            0                       # Time in different power states
system.mem_ctrls.rank0.memoryStateTime::ACT   8277886906                       # Time in different power states
system.mem_ctrls.rank0.memoryStateTime::ACT_PDN            0                       # Time in different power states
system.cpu_clk_domain.clock                       333                       # Clock period in ticks
system.tol2bus.pwrStateResidencyTicks::UNDEFINED  67659601005                       # Cumulative time (in ticks) in various power states
system.tol2bus.trans_dist::ReadResp            715268                       # Transaction distribution
system.tol2bus.trans_dist::WritebackDirty       227832                       # Transaction distribution
system.tol2bus.trans_dist::WritebackClean         3313                       # Transaction distribution
system.tol2bus.trans_dist::CleanEvict          647974                       # Transaction distribution
system.tol2bus.trans_dist::ReadExReq            28892                       # Transaction distribution
system.tol2bus.trans_dist::ReadExResp           28892                       # Transaction distribution
system.tol2bus.trans_dist::ReadCleanReq          4256                       # Transaction distribution
system.tol2bus.trans_dist::ReadSharedReq       711012                       # Transaction distribution
system.tol2bus.pkt_count_system.cpu0.icache.mem_side::system.l2.cpu_side          916                       # Packet count per connected master and slave (bytes)
system.tol2bus.pkt_count_system.cpu0.dcache.mem_side::system.l2.cpu_side      1043740                       # Packet count per connected master and slave (bytes)
system.tol2bus.pkt_count_system.cpu1.icache.mem_side::system.l2.cpu_side        10909                       # Packet count per connected master and slave (bytes)
system.tol2bus.pkt_count_system.cpu1.dcache.mem_side::system.l2.cpu_side      1175956                       # Packet count per connected master and slave (bytes)
system.tol2bus.pkt_count::total               2231521                       # Packet count per connected master and slave (bytes)
system.tol2bus.pkt_size_system.cpu0.icache.mem_side::system.l2.cpu_side        29888                       # Cumulative packet size per connected master and slave (bytes)
system.tol2bus.pkt_size_system.cpu0.dcache.mem_side::system.l2.cpu_side     22300288                       # Cumulative packet size per connected master and slave (bytes)
system.tol2bus.pkt_size_system.cpu1.icache.mem_side::system.l2.cpu_side       454528                       # Cumulative packet size per connected master and slave (bytes)
system.tol2bus.pkt_size_system.cpu1.dcache.mem_side::system.l2.cpu_side     39407296                       # Cumulative packet size per connected master and slave (bytes)
system.tol2bus.pkt_size::total               62192000                       # Cumulative packet size per connected master and slave (bytes)
system.tol2bus.snoops                          135918                       # Total snoops (count)
system.tol2bus.snoopTraffic                    227520                       # Total snoop traffic (bytes)
system.tol2bus.snoop_fanout::samples           880078                       # Request fanout histogram
system.tol2bus.snoop_fanout::mean            0.000716                       # Request fanout histogram
system.tol2bus.snoop_fanout::stdev           0.026746                       # Request fanout histogram
system.tol2bus.snoop_fanout::underflows             0      0.00%      0.00% # Request fanout histogram
system.tol2bus.snoop_fanout::0                 879448     99.93%     99.93% # Request fanout histogram
system.tol2bus.snoop_fanout::1                    630      0.07%    100.00% # Request fanout histogram
system.tol2bus.snoop_fanout::2                      0      0.00%    100.00% # Request fanout histogram
system.tol2bus.snoop_fanout::3                      0      0.00%    100.00% # Request fanout histogram
system.tol2bus.snoop_fanout::4                      0      0.00%    100.00% # Request fanout histogram
system.tol2bus.snoop_fanout::5                      0      0.00%    100.00% # Request fanout histogram
system.tol2bus.snoop_fanout::6                      0      0.00%    100.00% # Request fanout histogram
system.tol2bus.snoop_fanout::7                      0      0.00%    100.00% # Request fanout histogram
system.tol2bus.snoop_fanout::8                      0      0.00%    100.00% # Request fanout histogram
system.tol2bus.snoop_fanout::overflows              0      0.00%    100.00% # Request fanout histogram
system.tol2bus.snoop_fanout::min_value              0                       # Request fanout histogram
system.tol2bus.snoop_fanout::max_value              1                       # Request fanout histogram
system.tol2bus.snoop_fanout::total             880078                       # Request fanout histogram
system.tol2bus.reqLayer0.occupancy          646866153                       # Layer occupancy (ticks)
system.tol2bus.reqLayer0.utilization              1.0                       # Layer utilization (%)
system.tol2bus.respLayer5.occupancy         391596012                       # Layer occupancy (ticks)
system.tol2bus.respLayer5.utilization             0.6                       # Layer utilization (%)
system.tol2bus.respLayer4.occupancy           3803193                       # Layer occupancy (ticks)
system.tol2bus.respLayer4.utilization             0.0                       # Layer utilization (%)
system.tol2bus.respLayer1.occupancy         347783220                       # Layer occupancy (ticks)
system.tol2bus.respLayer1.utilization             0.5                       # Layer utilization (%)
system.tol2bus.respLayer0.occupancy            448551                       # Layer occupancy (ticks)
system.tol2bus.respLayer0.utilization             0.0                       # Layer utilization (%)

---------- End Simulation Statistics   ----------
