
---------- Begin Simulation Statistics ----------
final_tick                               1839694057740                       # Number of ticks from beginning of simulation (restored from checkpoints and never reset)
host_inst_rate                                 457936                       # Simulator instruction rate (inst/s)
host_mem_usage                               10763876                       # Number of bytes of host memory used
host_op_rate                                   870082                       # Simulator op (including micro ops) rate (op/s)
host_seconds                                  2183.79                       # Real time elapsed on the host
host_tick_rate                              842432378                       # Simulator tick rate (ticks/s)
sim_freq                                 1000000000000                       # Frequency of simulated ticks
sim_insts                                  1000036189                       # Number of instructions simulated
sim_ops                                    1900075929                       # Number of ops (including micro ops) simulated
sim_seconds                                  1.839694                       # Number of seconds simulated
sim_ticks                                1839694057740                       # Number of ticks simulated
system.cpu0.Branches                        100005070                       # Number of branches fetched
system.cpu0.committedInsts                 1000000001                       # Number of instructions committed
system.cpu0.committedOps                   1900003052                       # Number of ops (including micro ops) committed
system.cpu0.dtb.rdAccesses                  399992433                       # TLB accesses on read requests
system.cpu0.dtb.rdMisses                       195621                       # TLB misses on read requests
system.cpu0.dtb.wrAccesses                  199997894                       # TLB accesses on write requests
system.cpu0.dtb.wrMisses                           42                       # TLB misses on write requests
system.cpu0.idle_fraction                           0                       # Percentage of idle cycles
system.cpu0.itb.rdAccesses                          0                       # TLB accesses on read requests
system.cpu0.itb.rdMisses                            0                       # TLB misses on read requests
system.cpu0.itb.wrAccesses                 1300001549                       # TLB accesses on write requests
system.cpu0.itb.wrMisses                           42                       # TLB misses on write requests
system.cpu0.not_idle_fraction                       1                       # Percentage of non-idle cycles
system.cpu0.numCycles                      5524606780                       # number of cpu cycles simulated
system.cpu0.numWorkItemsCompleted                   0                       # number of work items this cpu completed
system.cpu0.numWorkItemsStarted                     0                       # number of work items this cpu started
system.cpu0.num_busy_cycles                5524606780                       # Number of busy cycles
system.cpu0.num_cc_register_reads           500025690                       # number of times the CC registers were read
system.cpu0.num_cc_register_writes          600000804                       # number of times the CC registers were written
system.cpu0.num_conditional_control_insts    100002724                       # number of instructions that are conditional controls
system.cpu0.num_fp_alu_accesses                  5835                       # Number of float alu accesses
system.cpu0.num_fp_insts                         5835                       # number of float instructions
system.cpu0.num_fp_register_reads                8883                       # number of times the floating registers were read
system.cpu0.num_fp_register_writes               4418                       # number of times the floating registers were written
system.cpu0.num_func_calls                       1296                       # number of times a function call or return occured
system.cpu0.num_idle_cycles                         0                       # Number of idle cycles
system.cpu0.num_int_alu_accesses           1899998501                       # Number of integer alu accesses
system.cpu0.num_int_insts                  1899998501                       # number of integer instructions
system.cpu0.num_int_register_reads         3799992253                       # number of times the integer registers were read
system.cpu0.num_int_register_writes        1599995227                       # number of times the integer registers were written
system.cpu0.num_load_insts                  399992395                       # Number of load instructions
system.cpu0.num_mem_refs                    599990254                       # number of memory refs
system.cpu0.num_store_insts                 199997859                       # Number of store instructions
system.cpu0.num_vec_alu_accesses                    0                       # Number of vector alu accesses
system.cpu0.num_vec_insts                           0                       # number of vector instructions
system.cpu0.num_vec_register_reads                  0                       # number of times the vector registers were read
system.cpu0.num_vec_register_writes                 0                       # number of times the vector registers were written
system.cpu0.op_class::No_OpClass                 1238      0.00%      0.00% # Class of executed instruction
system.cpu0.op_class::IntAlu               1300007784     68.42%     68.42% # Class of executed instruction
system.cpu0.op_class::IntMult                      65      0.00%     68.42% # Class of executed instruction
system.cpu0.op_class::IntDiv                      273      0.00%     68.42% # Class of executed instruction
system.cpu0.op_class::FloatAdd                    210      0.00%     68.42% # Class of executed instruction
system.cpu0.op_class::FloatCmp                      0      0.00%     68.42% # Class of executed instruction
system.cpu0.op_class::FloatCvt                      0      0.00%     68.42% # Class of executed instruction
system.cpu0.op_class::FloatMult                     0      0.00%     68.42% # Class of executed instruction
system.cpu0.op_class::FloatMultAcc                  0      0.00%     68.42% # Class of executed instruction
system.cpu0.op_class::FloatDiv                      0      0.00%     68.42% # Class of executed instruction
system.cpu0.op_class::FloatMisc                     0      0.00%     68.42% # Class of executed instruction
system.cpu0.op_class::FloatSqrt                     0      0.00%     68.42% # Class of executed instruction
system.cpu0.op_class::SimdAdd                       0      0.00%     68.42% # Class of executed instruction
system.cpu0.op_class::SimdAddAcc                    0      0.00%     68.42% # Class of executed instruction
system.cpu0.op_class::SimdAlu                     794      0.00%     68.42% # Class of executed instruction
system.cpu0.op_class::SimdCmp                       0      0.00%     68.42% # Class of executed instruction
system.cpu0.op_class::SimdCvt                    1166      0.00%     68.42% # Class of executed instruction
system.cpu0.op_class::SimdMisc                   1268      0.00%     68.42% # Class of executed instruction
system.cpu0.op_class::SimdMult                      0      0.00%     68.42% # Class of executed instruction
system.cpu0.op_class::SimdMultAcc                   0      0.00%     68.42% # Class of executed instruction
system.cpu0.op_class::SimdShift                     0      0.00%     68.42% # Class of executed instruction
system.cpu0.op_class::SimdShiftAcc                  0      0.00%     68.42% # Class of executed instruction
system.cpu0.op_class::SimdDiv                       0      0.00%     68.42% # Class of executed instruction
system.cpu0.op_class::SimdSqrt                      0      0.00%     68.42% # Class of executed instruction
system.cpu0.op_class::SimdFloatAdd                  0      0.00%     68.42% # Class of executed instruction
system.cpu0.op_class::SimdFloatAlu                  0      0.00%     68.42% # Class of executed instruction
system.cpu0.op_class::SimdFloatCmp                  0      0.00%     68.42% # Class of executed instruction
system.cpu0.op_class::SimdFloatCvt                  0      0.00%     68.42% # Class of executed instruction
system.cpu0.op_class::SimdFloatDiv                  0      0.00%     68.42% # Class of executed instruction
system.cpu0.op_class::SimdFloatMisc                 0      0.00%     68.42% # Class of executed instruction
system.cpu0.op_class::SimdFloatMult                 0      0.00%     68.42% # Class of executed instruction
system.cpu0.op_class::SimdFloatMultAcc              0      0.00%     68.42% # Class of executed instruction
system.cpu0.op_class::SimdFloatSqrt                 0      0.00%     68.42% # Class of executed instruction
system.cpu0.op_class::SimdReduceAdd                 0      0.00%     68.42% # Class of executed instruction
system.cpu0.op_class::SimdReduceAlu                 0      0.00%     68.42% # Class of executed instruction
system.cpu0.op_class::SimdReduceCmp                 0      0.00%     68.42% # Class of executed instruction
system.cpu0.op_class::SimdFloatReduceAdd            0      0.00%     68.42% # Class of executed instruction
system.cpu0.op_class::SimdFloatReduceCmp            0      0.00%     68.42% # Class of executed instruction
system.cpu0.op_class::SimdAes                       0      0.00%     68.42% # Class of executed instruction
system.cpu0.op_class::SimdAesMix                    0      0.00%     68.42% # Class of executed instruction
system.cpu0.op_class::SimdSha1Hash                  0      0.00%     68.42% # Class of executed instruction
system.cpu0.op_class::SimdSha1Hash2                 0      0.00%     68.42% # Class of executed instruction
system.cpu0.op_class::SimdSha256Hash                0      0.00%     68.42% # Class of executed instruction
system.cpu0.op_class::SimdSha256Hash2               0      0.00%     68.42% # Class of executed instruction
system.cpu0.op_class::SimdShaSigma2                 0      0.00%     68.42% # Class of executed instruction
system.cpu0.op_class::SimdShaSigma3                 0      0.00%     68.42% # Class of executed instruction
system.cpu0.op_class::SimdPredAlu                   0      0.00%     68.42% # Class of executed instruction
system.cpu0.op_class::MemRead               399991440     21.05%     89.47% # Class of executed instruction
system.cpu0.op_class::MemWrite              199997048     10.53%    100.00% # Class of executed instruction
system.cpu0.op_class::FloatMemRead                955      0.00%    100.00% # Class of executed instruction
system.cpu0.op_class::FloatMemWrite               811      0.00%    100.00% # Class of executed instruction
system.cpu0.op_class::IprAccess                     0      0.00%    100.00% # Class of executed instruction
system.cpu0.op_class::InstPrefetch                  0      0.00%    100.00% # Class of executed instruction
system.cpu0.op_class::total                1900003052                       # Class of executed instruction
system.cpu0.workload.numSyscalls                   45                       # Number of system calls
system.cpu1.Branches                             7960                       # Number of branches fetched
system.cpu1.committedInsts                      36188                       # Number of instructions committed
system.cpu1.committedOps                        72877                       # Number of ops (including micro ops) committed
system.cpu1.dtb.rdAccesses                       8038                       # TLB accesses on read requests
system.cpu1.dtb.rdMisses                           25                       # TLB misses on read requests
system.cpu1.dtb.wrAccesses                       8476                       # TLB accesses on write requests
system.cpu1.dtb.wrMisses                           13                       # TLB misses on write requests
system.cpu1.idle_fraction                    0.999887                       # Percentage of idle cycles
system.cpu1.itb.rdAccesses                          0                       # TLB accesses on read requests
system.cpu1.itb.rdMisses                            0                       # TLB misses on read requests
system.cpu1.itb.wrAccesses                      48895                       # TLB accesses on write requests
system.cpu1.itb.wrMisses                           98                       # TLB misses on write requests
system.cpu1.not_idle_fraction                0.000113                       # Percentage of non-idle cycles
system.cpu1.numCycles                          622078                       # number of cpu cycles simulated
system.cpu1.numWorkItemsCompleted                   0                       # number of work items this cpu completed
system.cpu1.numWorkItemsStarted                     0                       # number of work items this cpu started
system.cpu1.num_busy_cycles                 70.046802                       # Number of busy cycles
system.cpu1.num_cc_register_reads               40063                       # number of times the CC registers were read
system.cpu1.num_cc_register_writes              20502                       # number of times the CC registers were written
system.cpu1.num_conditional_control_insts         5855                       # number of instructions that are conditional controls
system.cpu1.num_fp_alu_accesses                  5126                       # Number of float alu accesses
system.cpu1.num_fp_insts                         5126                       # number of float instructions
system.cpu1.num_fp_register_reads                5722                       # number of times the floating registers were read
system.cpu1.num_fp_register_writes               2199                       # number of times the floating registers were written
system.cpu1.num_func_calls                       1462                       # number of times a function call or return occured
system.cpu1.num_idle_cycles              622007.953198                       # Number of idle cycles
system.cpu1.num_int_alu_accesses                70229                       # Number of integer alu accesses
system.cpu1.num_int_insts                       70229                       # number of integer instructions
system.cpu1.num_int_register_reads             137925                       # number of times the integer registers were read
system.cpu1.num_int_register_writes             53469                       # number of times the integer registers were written
system.cpu1.num_load_insts                       8028                       # Number of load instructions
system.cpu1.num_mem_refs                        16500                       # number of memory refs
system.cpu1.num_store_insts                      8472                       # Number of store instructions
system.cpu1.num_vec_alu_accesses                    0                       # Number of vector alu accesses
system.cpu1.num_vec_insts                           0                       # number of vector instructions
system.cpu1.num_vec_register_reads                  0                       # number of times the vector registers were read
system.cpu1.num_vec_register_writes                 0                       # number of times the vector registers were written
system.cpu1.op_class::No_OpClass                 1258      1.73%      1.73% # Class of executed instruction
system.cpu1.op_class::IntAlu                    53522     73.44%     75.17% # Class of executed instruction
system.cpu1.op_class::IntMult                      42      0.06%     75.23% # Class of executed instruction
system.cpu1.op_class::IntDiv                       21      0.03%     75.25% # Class of executed instruction
system.cpu1.op_class::FloatAdd                    162      0.22%     75.48% # Class of executed instruction
system.cpu1.op_class::FloatCmp                      0      0.00%     75.48% # Class of executed instruction
system.cpu1.op_class::FloatCvt                      0      0.00%     75.48% # Class of executed instruction
system.cpu1.op_class::FloatMult                     0      0.00%     75.48% # Class of executed instruction
system.cpu1.op_class::FloatMultAcc                  0      0.00%     75.48% # Class of executed instruction
system.cpu1.op_class::FloatDiv                      0      0.00%     75.48% # Class of executed instruction
system.cpu1.op_class::FloatMisc                     0      0.00%     75.48% # Class of executed instruction
system.cpu1.op_class::FloatSqrt                     0      0.00%     75.48% # Class of executed instruction
system.cpu1.op_class::SimdAdd                      10      0.01%     75.49% # Class of executed instruction
system.cpu1.op_class::SimdAddAcc                    0      0.00%     75.49% # Class of executed instruction
system.cpu1.op_class::SimdAlu                     456      0.63%     76.12% # Class of executed instruction
system.cpu1.op_class::SimdCmp                      12      0.02%     76.13% # Class of executed instruction
system.cpu1.op_class::SimdCvt                     302      0.41%     76.55% # Class of executed instruction
system.cpu1.op_class::SimdMisc                    592      0.81%     77.36% # Class of executed instruction
system.cpu1.op_class::SimdMult                      0      0.00%     77.36% # Class of executed instruction
system.cpu1.op_class::SimdMultAcc                   0      0.00%     77.36% # Class of executed instruction
system.cpu1.op_class::SimdShift                     0      0.00%     77.36% # Class of executed instruction
system.cpu1.op_class::SimdShiftAcc                  0      0.00%     77.36% # Class of executed instruction
system.cpu1.op_class::SimdDiv                       0      0.00%     77.36% # Class of executed instruction
system.cpu1.op_class::SimdSqrt                      0      0.00%     77.36% # Class of executed instruction
system.cpu1.op_class::SimdFloatAdd                  0      0.00%     77.36% # Class of executed instruction
system.cpu1.op_class::SimdFloatAlu                  0      0.00%     77.36% # Class of executed instruction
system.cpu1.op_class::SimdFloatCmp                  0      0.00%     77.36% # Class of executed instruction
system.cpu1.op_class::SimdFloatCvt                  0      0.00%     77.36% # Class of executed instruction
system.cpu1.op_class::SimdFloatDiv                  0      0.00%     77.36% # Class of executed instruction
system.cpu1.op_class::SimdFloatMisc                 0      0.00%     77.36% # Class of executed instruction
system.cpu1.op_class::SimdFloatMult                 0      0.00%     77.36% # Class of executed instruction
system.cpu1.op_class::SimdFloatMultAcc              0      0.00%     77.36% # Class of executed instruction
system.cpu1.op_class::SimdFloatSqrt                 0      0.00%     77.36% # Class of executed instruction
system.cpu1.op_class::SimdReduceAdd                 0      0.00%     77.36% # Class of executed instruction
system.cpu1.op_class::SimdReduceAlu                 0      0.00%     77.36% # Class of executed instruction
system.cpu1.op_class::SimdReduceCmp                 0      0.00%     77.36% # Class of executed instruction
system.cpu1.op_class::SimdFloatReduceAdd            0      0.00%     77.36% # Class of executed instruction
system.cpu1.op_class::SimdFloatReduceCmp            0      0.00%     77.36% # Class of executed instruction
system.cpu1.op_class::SimdAes                       0      0.00%     77.36% # Class of executed instruction
system.cpu1.op_class::SimdAesMix                    0      0.00%     77.36% # Class of executed instruction
system.cpu1.op_class::SimdSha1Hash                  0      0.00%     77.36% # Class of executed instruction
system.cpu1.op_class::SimdSha1Hash2                 0      0.00%     77.36% # Class of executed instruction
system.cpu1.op_class::SimdSha256Hash                0      0.00%     77.36% # Class of executed instruction
system.cpu1.op_class::SimdSha256Hash2               0      0.00%     77.36% # Class of executed instruction
system.cpu1.op_class::SimdShaSigma2                 0      0.00%     77.36% # Class of executed instruction
system.cpu1.op_class::SimdShaSigma3                 0      0.00%     77.36% # Class of executed instruction
system.cpu1.op_class::SimdPredAlu                   0      0.00%     77.36% # Class of executed instruction
system.cpu1.op_class::MemRead                    7306     10.03%     87.38% # Class of executed instruction
system.cpu1.op_class::MemWrite                   5814      7.98%     95.36% # Class of executed instruction
system.cpu1.op_class::FloatMemRead                722      0.99%     96.35% # Class of executed instruction
system.cpu1.op_class::FloatMemWrite              2658      3.65%    100.00% # Class of executed instruction
system.cpu1.op_class::IprAccess                     0      0.00%    100.00% # Class of executed instruction
system.cpu1.op_class::InstPrefetch                  0      0.00%    100.00% # Class of executed instruction
system.cpu1.op_class::total                     72877                       # Class of executed instruction
system.cpu1.workload.numSyscalls                   31                       # Number of system calls
system.membus.snoop_filter.hit_multi_requests            0                       # Number of requests hitting in the snoop filter with multiple (>1) holders of the requested data.
system.membus.snoop_filter.hit_multi_snoops            0                       # Number of snoops hitting in the snoop filter with multiple (>1) holders of the requested data.
system.membus.snoop_filter.hit_single_requests      5503327                       # Number of requests hitting in the snoop filter with a single holder of the requested data.
system.membus.snoop_filter.hit_single_snoops            0                       # Number of snoops hitting in the snoop filter with a single holder of the requested data.
system.membus.snoop_filter.tot_requests      11269729                       # Total number of requests made to the snoop filter.
system.membus.snoop_filter.tot_snoops               0                       # Total number of snoops made to the snoop filter.
system.tol2bus.snoop_filter.hit_multi_requests            0                       # Number of requests hitting in the snoop filter with multiple (>1) holders of the requested data.
system.tol2bus.snoop_filter.hit_multi_snoops            0                       # Number of snoops hitting in the snoop filter with multiple (>1) holders of the requested data.
system.tol2bus.snoop_filter.hit_single_requests     12507117                       # Number of requests hitting in the snoop filter with a single holder of the requested data.
system.tol2bus.snoop_filter.hit_single_snoops         1113                       # Number of snoops hitting in the snoop filter with a single holder of the requested data.
system.tol2bus.snoop_filter.tot_requests     25015173                       # Total number of requests made to the snoop filter.
system.tol2bus.snoop_filter.tot_snoops           1113                       # Total number of snoops made to the snoop filter.
system.membus.pwrStateResidencyTicks::UNDEFINED 1839694057740                       # Cumulative time (in ticks) in various power states
system.membus.trans_dist::ReadResp            5765655                       # Transaction distribution
system.membus.trans_dist::WritebackDirty          840                       # Transaction distribution
system.membus.trans_dist::CleanEvict          5502487                       # Transaction distribution
system.membus.trans_dist::ReadExReq               747                       # Transaction distribution
system.membus.trans_dist::ReadExResp              747                       # Transaction distribution
system.membus.trans_dist::ReadSharedReq       5765655                       # Transaction distribution
system.membus.pkt_count_system.l2.mem_side::system.mem_ctrls.port     17036131                       # Packet count per connected master and slave (bytes)
system.membus.pkt_count_system.l2.mem_side::total     17036131                       # Packet count per connected master and slave (bytes)
system.membus.pkt_count::total               17036131                       # Packet count per connected master and slave (bytes)
system.membus.pkt_size_system.l2.mem_side::system.mem_ctrls.port    369103488                       # Cumulative packet size per connected master and slave (bytes)
system.membus.pkt_size_system.l2.mem_side::total    369103488                       # Cumulative packet size per connected master and slave (bytes)
system.membus.pkt_size::total               369103488                       # Cumulative packet size per connected master and slave (bytes)
system.membus.snoops                                0                       # Total snoops (count)
system.membus.snoopTraffic                          0                       # Total snoop traffic (bytes)
system.membus.snoop_fanout::samples           5766402                       # Request fanout histogram
system.membus.snoop_fanout::mean                    0                       # Request fanout histogram
system.membus.snoop_fanout::stdev                   0                       # Request fanout histogram
system.membus.snoop_fanout::underflows              0      0.00%      0.00% # Request fanout histogram
system.membus.snoop_fanout::0                 5766402    100.00%    100.00% # Request fanout histogram
system.membus.snoop_fanout::1                       0      0.00%    100.00% # Request fanout histogram
system.membus.snoop_fanout::overflows               0      0.00%    100.00% # Request fanout histogram
system.membus.snoop_fanout::min_value               0                       # Request fanout histogram
system.membus.snoop_fanout::max_value               0                       # Request fanout histogram
system.membus.snoop_fanout::total             5766402                       # Request fanout histogram
system.membus.reqLayer4.occupancy         16375482707                       # Layer occupancy (ticks)
system.membus.reqLayer4.utilization               0.9                       # Layer utilization (%)
system.membus.respLayer1.occupancy        30863991623                       # Layer occupancy (ticks)
system.membus.respLayer1.utilization              1.7                       # Layer utilization (%)
system.voltage_domain.voltage                       1                       # Voltage in Volts
system.clk_domain.clock                          1000                       # Clock period in ticks
system.cpu0.numPwrStateTransitions                  1                       # Number of power state transitions
system.cpu0.pwrStateResidencyTicks::ON   1839694057740                       # Cumulative time (in ticks) in various power states
system.cpu0.icache.pwrStateResidencyTicks::UNDEFINED 1839694057740                       # Cumulative time (in ticks) in various power states
system.cpu0.icache.demand_hits::.cpu0.inst   1300001096                       # number of demand (read+write) hits
system.cpu0.icache.demand_hits::total      1300001096                       # number of demand (read+write) hits
system.cpu0.icache.overall_hits::.cpu0.inst   1300001096                       # number of overall hits
system.cpu0.icache.overall_hits::total     1300001096                       # number of overall hits
system.cpu0.icache.demand_misses::.cpu0.inst          453                       # number of demand (read+write) misses
system.cpu0.icache.demand_misses::total           453                       # number of demand (read+write) misses
system.cpu0.icache.overall_misses::.cpu0.inst          453                       # number of overall misses
system.cpu0.icache.overall_misses::total          453                       # number of overall misses
system.cpu0.icache.demand_miss_latency::.cpu0.inst     38019609                       # number of demand (read+write) miss cycles
system.cpu0.icache.demand_miss_latency::total     38019609                       # number of demand (read+write) miss cycles
system.cpu0.icache.overall_miss_latency::.cpu0.inst     38019609                       # number of overall miss cycles
system.cpu0.icache.overall_miss_latency::total     38019609                       # number of overall miss cycles
system.cpu0.icache.demand_accesses::.cpu0.inst   1300001549                       # number of demand (read+write) accesses
system.cpu0.icache.demand_accesses::total   1300001549                       # number of demand (read+write) accesses
system.cpu0.icache.overall_accesses::.cpu0.inst   1300001549                       # number of overall (read+write) accesses
system.cpu0.icache.overall_accesses::total   1300001549                       # number of overall (read+write) accesses
system.cpu0.icache.demand_miss_rate::.cpu0.inst     0.000000                       # miss rate for demand accesses
system.cpu0.icache.demand_miss_rate::total     0.000000                       # miss rate for demand accesses
system.cpu0.icache.overall_miss_rate::.cpu0.inst     0.000000                       # miss rate for overall accesses
system.cpu0.icache.overall_miss_rate::total     0.000000                       # miss rate for overall accesses
system.cpu0.icache.demand_avg_miss_latency::.cpu0.inst 83928.496689                       # average overall miss latency
system.cpu0.icache.demand_avg_miss_latency::total 83928.496689                       # average overall miss latency
system.cpu0.icache.overall_avg_miss_latency::.cpu0.inst 83928.496689                       # average overall miss latency
system.cpu0.icache.overall_avg_miss_latency::total 83928.496689                       # average overall miss latency
system.cpu0.icache.blocked_cycles::no_mshrs            0                       # number of cycles access was blocked
system.cpu0.icache.blocked_cycles::no_targets            0                       # number of cycles access was blocked
system.cpu0.icache.blocked::no_mshrs                0                       # number of cycles access was blocked
system.cpu0.icache.blocked::no_targets              0                       # number of cycles access was blocked
system.cpu0.icache.avg_blocked_cycles::no_mshrs          nan                       # average number of cycles each access was blocked
system.cpu0.icache.avg_blocked_cycles::no_targets          nan                       # average number of cycles each access was blocked
system.cpu0.icache.writebacks::.writebacks           40                       # number of writebacks
system.cpu0.icache.writebacks::total               40                       # number of writebacks
system.cpu0.icache.demand_mshr_misses::.cpu0.inst          453                       # number of demand (read+write) MSHR misses
system.cpu0.icache.demand_mshr_misses::total          453                       # number of demand (read+write) MSHR misses
system.cpu0.icache.overall_mshr_misses::.cpu0.inst          453                       # number of overall MSHR misses
system.cpu0.icache.overall_mshr_misses::total          453                       # number of overall MSHR misses
system.cpu0.icache.demand_mshr_miss_latency::.cpu0.inst     37717911                       # number of demand (read+write) MSHR miss cycles
system.cpu0.icache.demand_mshr_miss_latency::total     37717911                       # number of demand (read+write) MSHR miss cycles
system.cpu0.icache.overall_mshr_miss_latency::.cpu0.inst     37717911                       # number of overall MSHR miss cycles
system.cpu0.icache.overall_mshr_miss_latency::total     37717911                       # number of overall MSHR miss cycles
system.cpu0.icache.demand_mshr_miss_rate::.cpu0.inst     0.000000                       # mshr miss rate for demand accesses
system.cpu0.icache.demand_mshr_miss_rate::total     0.000000                       # mshr miss rate for demand accesses
system.cpu0.icache.overall_mshr_miss_rate::.cpu0.inst     0.000000                       # mshr miss rate for overall accesses
system.cpu0.icache.overall_mshr_miss_rate::total     0.000000                       # mshr miss rate for overall accesses
system.cpu0.icache.demand_avg_mshr_miss_latency::.cpu0.inst 83262.496689                       # average overall mshr miss latency
system.cpu0.icache.demand_avg_mshr_miss_latency::total 83262.496689                       # average overall mshr miss latency
system.cpu0.icache.overall_avg_mshr_miss_latency::.cpu0.inst 83262.496689                       # average overall mshr miss latency
system.cpu0.icache.overall_avg_mshr_miss_latency::total 83262.496689                       # average overall mshr miss latency
system.cpu0.icache.replacements                    40                       # number of replacements
system.cpu0.icache.ReadReq_hits::.cpu0.inst   1300001096                       # number of ReadReq hits
system.cpu0.icache.ReadReq_hits::total     1300001096                       # number of ReadReq hits
system.cpu0.icache.ReadReq_misses::.cpu0.inst          453                       # number of ReadReq misses
system.cpu0.icache.ReadReq_misses::total          453                       # number of ReadReq misses
system.cpu0.icache.ReadReq_miss_latency::.cpu0.inst     38019609                       # number of ReadReq miss cycles
system.cpu0.icache.ReadReq_miss_latency::total     38019609                       # number of ReadReq miss cycles
system.cpu0.icache.ReadReq_accesses::.cpu0.inst   1300001549                       # number of ReadReq accesses(hits+misses)
system.cpu0.icache.ReadReq_accesses::total   1300001549                       # number of ReadReq accesses(hits+misses)
system.cpu0.icache.ReadReq_miss_rate::.cpu0.inst     0.000000                       # miss rate for ReadReq accesses
system.cpu0.icache.ReadReq_miss_rate::total     0.000000                       # miss rate for ReadReq accesses
system.cpu0.icache.ReadReq_avg_miss_latency::.cpu0.inst 83928.496689                       # average ReadReq miss latency
system.cpu0.icache.ReadReq_avg_miss_latency::total 83928.496689                       # average ReadReq miss latency
system.cpu0.icache.ReadReq_mshr_misses::.cpu0.inst          453                       # number of ReadReq MSHR misses
system.cpu0.icache.ReadReq_mshr_misses::total          453                       # number of ReadReq MSHR misses
system.cpu0.icache.ReadReq_mshr_miss_latency::.cpu0.inst     37717911                       # number of ReadReq MSHR miss cycles
system.cpu0.icache.ReadReq_mshr_miss_latency::total     37717911                       # number of ReadReq MSHR miss cycles
system.cpu0.icache.ReadReq_mshr_miss_rate::.cpu0.inst     0.000000                       # mshr miss rate for ReadReq accesses
system.cpu0.icache.ReadReq_mshr_miss_rate::total     0.000000                       # mshr miss rate for ReadReq accesses
system.cpu0.icache.ReadReq_avg_mshr_miss_latency::.cpu0.inst 83262.496689                       # average ReadReq mshr miss latency
system.cpu0.icache.ReadReq_avg_mshr_miss_latency::total 83262.496689                       # average ReadReq mshr miss latency
system.cpu0.icache.tags.pwrStateResidencyTicks::UNDEFINED 1839694057740                       # Cumulative time (in ticks) in various power states
system.cpu0.icache.tags.tagsinuse          410.377863                       # Cycle average of tags in use
system.cpu0.icache.tags.total_refs         1300001549                       # Total number of references to valid blocks.
system.cpu0.icache.tags.sampled_refs              453                       # Sample count of references to valid blocks.
system.cpu0.icache.tags.avg_refs         2869760.593819                       # Average number of references to valid blocks.
system.cpu0.icache.tags.warmup_cycle            84249                       # Cycle when the warmup percentage was hit.
system.cpu0.icache.tags.occ_blocks::.cpu0.inst   410.377863                       # Average occupied blocks per requestor
system.cpu0.icache.tags.occ_percent::.cpu0.inst     0.801519                       # Average percentage of cache occupancy
system.cpu0.icache.tags.occ_percent::total     0.801519                       # Average percentage of cache occupancy
system.cpu0.icache.tags.occ_task_id_blocks::1024          413                       # Occupied blocks per task id
system.cpu0.icache.tags.age_task_id_blocks_1024::4          413                       # Occupied blocks per task id
system.cpu0.icache.tags.occ_task_id_percent::1024     0.806641                       # Percentage of cache occupancy per task id
system.cpu0.icache.tags.tag_accesses      10400012845                       # Number of tag accesses
system.cpu0.icache.tags.data_accesses     10400012845                       # Number of data accesses
system.cpu0.icache.tags.repl_invalid                0                       # Number of initial replacements
system.cpu0.icache.tags.repl_valid_tag              0                       # Number of local replacements
system.cpu0.icache.tags.repl_valid_data             0                       # Number of global replacements
system.cpu0.dtb.walker.pwrStateResidencyTicks::UNDEFINED 1839694057740                       # Cumulative time (in ticks) in various power states
system.cpu0.interrupts.clk_domain.clock          5328                       # Clock period in ticks
system.cpu0.itb_walker_cache.pwrStateResidencyTicks::UNDEFINED 1839694057740                       # Cumulative time (in ticks) in various power states
system.cpu0.itb_walker_cache.blocked_cycles::no_mshrs            0                       # number of cycles access was blocked
system.cpu0.itb_walker_cache.blocked_cycles::no_targets            0                       # number of cycles access was blocked
system.cpu0.itb_walker_cache.blocked::no_mshrs            0                       # number of cycles access was blocked
system.cpu0.itb_walker_cache.blocked::no_targets            0                       # number of cycles access was blocked
system.cpu0.itb_walker_cache.avg_blocked_cycles::no_mshrs          nan                       # average number of cycles each access was blocked
system.cpu0.itb_walker_cache.avg_blocked_cycles::no_targets          nan                       # average number of cycles each access was blocked
system.cpu0.itb_walker_cache.replacements            0                       # number of replacements
system.cpu0.itb_walker_cache.tags.pwrStateResidencyTicks::UNDEFINED 1839694057740                       # Cumulative time (in ticks) in various power states
system.cpu0.itb_walker_cache.tags.tagsinuse            0                       # Cycle average of tags in use
system.cpu0.itb_walker_cache.tags.total_refs            0                       # Total number of references to valid blocks.
system.cpu0.itb_walker_cache.tags.sampled_refs            0                       # Sample count of references to valid blocks.
system.cpu0.itb_walker_cache.tags.avg_refs          nan                       # Average number of references to valid blocks.
system.cpu0.itb_walker_cache.tags.warmup_cycle            0                       # Cycle when the warmup percentage was hit.
system.cpu0.itb_walker_cache.tags.tag_accesses            0                       # Number of tag accesses
system.cpu0.itb_walker_cache.tags.data_accesses            0                       # Number of data accesses
system.cpu0.itb_walker_cache.tags.repl_invalid            0                       # Number of initial replacements
system.cpu0.itb_walker_cache.tags.repl_valid_tag            0                       # Number of local replacements
system.cpu0.itb_walker_cache.tags.repl_valid_data            0                       # Number of global replacements
system.cpu0.itb.walker.pwrStateResidencyTicks::UNDEFINED 1839694057740                       # Cumulative time (in ticks) in various power states
system.cpu0.dtb_walker_cache.pwrStateResidencyTicks::UNDEFINED 1839694057740                       # Cumulative time (in ticks) in various power states
system.cpu0.dtb_walker_cache.blocked_cycles::no_mshrs            0                       # number of cycles access was blocked
system.cpu0.dtb_walker_cache.blocked_cycles::no_targets            0                       # number of cycles access was blocked
system.cpu0.dtb_walker_cache.blocked::no_mshrs            0                       # number of cycles access was blocked
system.cpu0.dtb_walker_cache.blocked::no_targets            0                       # number of cycles access was blocked
system.cpu0.dtb_walker_cache.avg_blocked_cycles::no_mshrs          nan                       # average number of cycles each access was blocked
system.cpu0.dtb_walker_cache.avg_blocked_cycles::no_targets          nan                       # average number of cycles each access was blocked
system.cpu0.dtb_walker_cache.replacements            0                       # number of replacements
system.cpu0.dtb_walker_cache.tags.pwrStateResidencyTicks::UNDEFINED 1839694057740                       # Cumulative time (in ticks) in various power states
system.cpu0.dtb_walker_cache.tags.tagsinuse            0                       # Cycle average of tags in use
system.cpu0.dtb_walker_cache.tags.total_refs            0                       # Total number of references to valid blocks.
system.cpu0.dtb_walker_cache.tags.sampled_refs            0                       # Sample count of references to valid blocks.
system.cpu0.dtb_walker_cache.tags.avg_refs          nan                       # Average number of references to valid blocks.
system.cpu0.dtb_walker_cache.tags.warmup_cycle            0                       # Cycle when the warmup percentage was hit.
system.cpu0.dtb_walker_cache.tags.tag_accesses            0                       # Number of tag accesses
system.cpu0.dtb_walker_cache.tags.data_accesses            0                       # Number of data accesses
system.cpu0.dtb_walker_cache.tags.repl_invalid            0                       # Number of initial replacements
system.cpu0.dtb_walker_cache.tags.repl_valid_tag            0                       # Number of local replacements
system.cpu0.dtb_walker_cache.tags.repl_valid_data            0                       # Number of global replacements
system.cpu0.dcache.pwrStateResidencyTicks::UNDEFINED 1839694057740                       # Cumulative time (in ticks) in various power states
system.cpu0.dcache.demand_hits::.cpu0.data    587487306                       # number of demand (read+write) hits
system.cpu0.dcache.demand_hits::total       587487306                       # number of demand (read+write) hits
system.cpu0.dcache.overall_hits::.cpu0.data    587487306                       # number of overall hits
system.cpu0.dcache.overall_hits::total      587487306                       # number of overall hits
system.cpu0.dcache.demand_misses::.cpu0.data     12503021                       # number of demand (read+write) misses
system.cpu0.dcache.demand_misses::total      12503021                       # number of demand (read+write) misses
system.cpu0.dcache.overall_misses::.cpu0.data     12503021                       # number of overall misses
system.cpu0.dcache.overall_misses::total     12503021                       # number of overall misses
system.cpu0.dcache.demand_miss_latency::.cpu0.data 582588822006                       # number of demand (read+write) miss cycles
system.cpu0.dcache.demand_miss_latency::total 582588822006                       # number of demand (read+write) miss cycles
system.cpu0.dcache.overall_miss_latency::.cpu0.data 582588822006                       # number of overall miss cycles
system.cpu0.dcache.overall_miss_latency::total 582588822006                       # number of overall miss cycles
system.cpu0.dcache.demand_accesses::.cpu0.data    599990327                       # number of demand (read+write) accesses
system.cpu0.dcache.demand_accesses::total    599990327                       # number of demand (read+write) accesses
system.cpu0.dcache.overall_accesses::.cpu0.data    599990327                       # number of overall (read+write) accesses
system.cpu0.dcache.overall_accesses::total    599990327                       # number of overall (read+write) accesses
system.cpu0.dcache.demand_miss_rate::.cpu0.data     0.020839                       # miss rate for demand accesses
system.cpu0.dcache.demand_miss_rate::total     0.020839                       # miss rate for demand accesses
system.cpu0.dcache.overall_miss_rate::.cpu0.data     0.020839                       # miss rate for overall accesses
system.cpu0.dcache.overall_miss_rate::total     0.020839                       # miss rate for overall accesses
system.cpu0.dcache.demand_avg_miss_latency::.cpu0.data 46595.844477                       # average overall miss latency
system.cpu0.dcache.demand_avg_miss_latency::total 46595.844477                       # average overall miss latency
system.cpu0.dcache.overall_avg_miss_latency::.cpu0.data 46595.844477                       # average overall miss latency
system.cpu0.dcache.overall_avg_miss_latency::total 46595.844477                       # average overall miss latency
system.cpu0.dcache.blocked_cycles::no_mshrs            0                       # number of cycles access was blocked
system.cpu0.dcache.blocked_cycles::no_targets            0                       # number of cycles access was blocked
system.cpu0.dcache.blocked::no_mshrs                0                       # number of cycles access was blocked
system.cpu0.dcache.blocked::no_targets              0                       # number of cycles access was blocked
system.cpu0.dcache.avg_blocked_cycles::no_mshrs          nan                       # average number of cycles each access was blocked
system.cpu0.dcache.avg_blocked_cycles::no_targets          nan                       # average number of cycles each access was blocked
system.cpu0.dcache.writebacks::.writebacks         2124                       # number of writebacks
system.cpu0.dcache.writebacks::total             2124                       # number of writebacks
system.cpu0.dcache.demand_mshr_misses::.cpu0.data     12503021                       # number of demand (read+write) MSHR misses
system.cpu0.dcache.demand_mshr_misses::total     12503021                       # number of demand (read+write) MSHR misses
system.cpu0.dcache.overall_mshr_misses::.cpu0.data     12503021                       # number of overall MSHR misses
system.cpu0.dcache.overall_mshr_misses::total     12503021                       # number of overall MSHR misses
system.cpu0.dcache.demand_mshr_miss_latency::.cpu0.data 574261810020                       # number of demand (read+write) MSHR miss cycles
system.cpu0.dcache.demand_mshr_miss_latency::total 574261810020                       # number of demand (read+write) MSHR miss cycles
system.cpu0.dcache.overall_mshr_miss_latency::.cpu0.data 574261810020                       # number of overall MSHR miss cycles
system.cpu0.dcache.overall_mshr_miss_latency::total 574261810020                       # number of overall MSHR miss cycles
system.cpu0.dcache.demand_mshr_miss_rate::.cpu0.data     0.020839                       # mshr miss rate for demand accesses
system.cpu0.dcache.demand_mshr_miss_rate::total     0.020839                       # mshr miss rate for demand accesses
system.cpu0.dcache.overall_mshr_miss_rate::.cpu0.data     0.020839                       # mshr miss rate for overall accesses
system.cpu0.dcache.overall_mshr_miss_rate::total     0.020839                       # mshr miss rate for overall accesses
system.cpu0.dcache.demand_avg_mshr_miss_latency::.cpu0.data 45929.844477                       # average overall mshr miss latency
system.cpu0.dcache.demand_avg_mshr_miss_latency::total 45929.844477                       # average overall mshr miss latency
system.cpu0.dcache.overall_avg_mshr_miss_latency::.cpu0.data 45929.844477                       # average overall mshr miss latency
system.cpu0.dcache.overall_avg_mshr_miss_latency::total 45929.844477                       # average overall mshr miss latency
system.cpu0.dcache.replacements              12503013                       # number of replacements
system.cpu0.dcache.ReadReq_hits::.cpu0.data    387490491                       # number of ReadReq hits
system.cpu0.dcache.ReadReq_hits::total      387490491                       # number of ReadReq hits
system.cpu0.dcache.ReadReq_misses::.cpu0.data     12501942                       # number of ReadReq misses
system.cpu0.dcache.ReadReq_misses::total     12501942                       # number of ReadReq misses
system.cpu0.dcache.ReadReq_miss_latency::.cpu0.data 582559466058                       # number of ReadReq miss cycles
system.cpu0.dcache.ReadReq_miss_latency::total 582559466058                       # number of ReadReq miss cycles
system.cpu0.dcache.ReadReq_accesses::.cpu0.data    399992433                       # number of ReadReq accesses(hits+misses)
system.cpu0.dcache.ReadReq_accesses::total    399992433                       # number of ReadReq accesses(hits+misses)
system.cpu0.dcache.ReadReq_miss_rate::.cpu0.data     0.031255                       # miss rate for ReadReq accesses
system.cpu0.dcache.ReadReq_miss_rate::total     0.031255                       # miss rate for ReadReq accesses
system.cpu0.dcache.ReadReq_avg_miss_latency::.cpu0.data 46597.517894                       # average ReadReq miss latency
system.cpu0.dcache.ReadReq_avg_miss_latency::total 46597.517894                       # average ReadReq miss latency
system.cpu0.dcache.ReadReq_mshr_misses::.cpu0.data     12501942                       # number of ReadReq MSHR misses
system.cpu0.dcache.ReadReq_mshr_misses::total     12501942                       # number of ReadReq MSHR misses
system.cpu0.dcache.ReadReq_mshr_miss_latency::.cpu0.data 574233172686                       # number of ReadReq MSHR miss cycles
system.cpu0.dcache.ReadReq_mshr_miss_latency::total 574233172686                       # number of ReadReq MSHR miss cycles
system.cpu0.dcache.ReadReq_mshr_miss_rate::.cpu0.data     0.031255                       # mshr miss rate for ReadReq accesses
system.cpu0.dcache.ReadReq_mshr_miss_rate::total     0.031255                       # mshr miss rate for ReadReq accesses
system.cpu0.dcache.ReadReq_avg_mshr_miss_latency::.cpu0.data 45931.517894                       # average ReadReq mshr miss latency
system.cpu0.dcache.ReadReq_avg_mshr_miss_latency::total 45931.517894                       # average ReadReq mshr miss latency
system.cpu0.dcache.WriteReq_hits::.cpu0.data    199996815                       # number of WriteReq hits
system.cpu0.dcache.WriteReq_hits::total     199996815                       # number of WriteReq hits
system.cpu0.dcache.WriteReq_misses::.cpu0.data         1079                       # number of WriteReq misses
system.cpu0.dcache.WriteReq_misses::total         1079                       # number of WriteReq misses
system.cpu0.dcache.WriteReq_miss_latency::.cpu0.data     29355948                       # number of WriteReq miss cycles
system.cpu0.dcache.WriteReq_miss_latency::total     29355948                       # number of WriteReq miss cycles
system.cpu0.dcache.WriteReq_accesses::.cpu0.data    199997894                       # number of WriteReq accesses(hits+misses)
system.cpu0.dcache.WriteReq_accesses::total    199997894                       # number of WriteReq accesses(hits+misses)
system.cpu0.dcache.WriteReq_miss_rate::.cpu0.data     0.000005                       # miss rate for WriteReq accesses
system.cpu0.dcache.WriteReq_miss_rate::total     0.000005                       # miss rate for WriteReq accesses
system.cpu0.dcache.WriteReq_avg_miss_latency::.cpu0.data 27206.624652                       # average WriteReq miss latency
system.cpu0.dcache.WriteReq_avg_miss_latency::total 27206.624652                       # average WriteReq miss latency
system.cpu0.dcache.WriteReq_mshr_misses::.cpu0.data         1079                       # number of WriteReq MSHR misses
system.cpu0.dcache.WriteReq_mshr_misses::total         1079                       # number of WriteReq MSHR misses
system.cpu0.dcache.WriteReq_mshr_miss_latency::.cpu0.data     28637334                       # number of WriteReq MSHR miss cycles
system.cpu0.dcache.WriteReq_mshr_miss_latency::total     28637334                       # number of WriteReq MSHR miss cycles
system.cpu0.dcache.WriteReq_mshr_miss_rate::.cpu0.data     0.000005                       # mshr miss rate for WriteReq accesses
system.cpu0.dcache.WriteReq_mshr_miss_rate::total     0.000005                       # mshr miss rate for WriteReq accesses
system.cpu0.dcache.WriteReq_avg_mshr_miss_latency::.cpu0.data 26540.624652                       # average WriteReq mshr miss latency
system.cpu0.dcache.WriteReq_avg_mshr_miss_latency::total 26540.624652                       # average WriteReq mshr miss latency
system.cpu0.dcache.tags.pwrStateResidencyTicks::UNDEFINED 1839694057740                       # Cumulative time (in ticks) in various power states
system.cpu0.dcache.tags.tagsinuse            7.999997                       # Cycle average of tags in use
system.cpu0.dcache.tags.total_refs          599990327                       # Total number of references to valid blocks.
system.cpu0.dcache.tags.sampled_refs         12503021                       # Sample count of references to valid blocks.
system.cpu0.dcache.tags.avg_refs            47.987629                       # Average number of references to valid blocks.
system.cpu0.dcache.tags.warmup_cycle           167166                       # Cycle when the warmup percentage was hit.
system.cpu0.dcache.tags.occ_blocks::.cpu0.data     7.999997                       # Average occupied blocks per requestor
system.cpu0.dcache.tags.occ_percent::.cpu0.data     1.000000                       # Average percentage of cache occupancy
system.cpu0.dcache.tags.occ_percent::total     1.000000                       # Average percentage of cache occupancy
system.cpu0.dcache.tags.occ_task_id_blocks::1024            8                       # Occupied blocks per task id
system.cpu0.dcache.tags.age_task_id_blocks_1024::0            7                       # Occupied blocks per task id
system.cpu0.dcache.tags.age_task_id_blocks_1024::4            1                       # Occupied blocks per task id
system.cpu0.dcache.tags.occ_task_id_percent::1024            1                       # Percentage of cache occupancy per task id
system.cpu0.dcache.tags.tag_accesses       4812425637                       # Number of tag accesses
system.cpu0.dcache.tags.data_accesses      4812425637                       # Number of data accesses
system.cpu0.dcache.tags.repl_invalid                0                       # Number of initial replacements
system.cpu0.dcache.tags.repl_valid_tag              0                       # Number of local replacements
system.cpu0.dcache.tags.repl_valid_data             0                       # Number of global replacements
system.cpu1.numPwrStateTransitions                  1                       # Number of power state transitions
system.cpu1.pwrStateResidencyTicks::ON   1839694057740                       # Cumulative time (in ticks) in various power states
system.cpu1.icache.pwrStateResidencyTicks::UNDEFINED 1839694057740                       # Cumulative time (in ticks) in various power states
system.cpu1.icache.demand_hits::.cpu1.inst        47885                       # number of demand (read+write) hits
system.cpu1.icache.demand_hits::total           47885                       # number of demand (read+write) hits
system.cpu1.icache.overall_hits::.cpu1.inst        47885                       # number of overall hits
system.cpu1.icache.overall_hits::total          47885                       # number of overall hits
system.cpu1.icache.demand_misses::.cpu1.inst         1010                       # number of demand (read+write) misses
system.cpu1.icache.demand_misses::total          1010                       # number of demand (read+write) misses
system.cpu1.icache.overall_misses::.cpu1.inst         1010                       # number of overall misses
system.cpu1.icache.overall_misses::total         1010                       # number of overall misses
system.cpu1.icache.demand_miss_latency::.cpu1.inst     81462123                       # number of demand (read+write) miss cycles
system.cpu1.icache.demand_miss_latency::total     81462123                       # number of demand (read+write) miss cycles
system.cpu1.icache.overall_miss_latency::.cpu1.inst     81462123                       # number of overall miss cycles
system.cpu1.icache.overall_miss_latency::total     81462123                       # number of overall miss cycles
system.cpu1.icache.demand_accesses::.cpu1.inst        48895                       # number of demand (read+write) accesses
system.cpu1.icache.demand_accesses::total        48895                       # number of demand (read+write) accesses
system.cpu1.icache.overall_accesses::.cpu1.inst        48895                       # number of overall (read+write) accesses
system.cpu1.icache.overall_accesses::total        48895                       # number of overall (read+write) accesses
system.cpu1.icache.demand_miss_rate::.cpu1.inst     0.020657                       # miss rate for demand accesses
system.cpu1.icache.demand_miss_rate::total     0.020657                       # miss rate for demand accesses
system.cpu1.icache.overall_miss_rate::.cpu1.inst     0.020657                       # miss rate for overall accesses
system.cpu1.icache.overall_miss_rate::total     0.020657                       # miss rate for overall accesses
system.cpu1.icache.demand_avg_miss_latency::.cpu1.inst 80655.567327                       # average overall miss latency
system.cpu1.icache.demand_avg_miss_latency::total 80655.567327                       # average overall miss latency
system.cpu1.icache.overall_avg_miss_latency::.cpu1.inst 80655.567327                       # average overall miss latency
system.cpu1.icache.overall_avg_miss_latency::total 80655.567327                       # average overall miss latency
system.cpu1.icache.blocked_cycles::no_mshrs            0                       # number of cycles access was blocked
system.cpu1.icache.blocked_cycles::no_targets            0                       # number of cycles access was blocked
system.cpu1.icache.blocked::no_mshrs                0                       # number of cycles access was blocked
system.cpu1.icache.blocked::no_targets              0                       # number of cycles access was blocked
system.cpu1.icache.avg_blocked_cycles::no_mshrs          nan                       # average number of cycles each access was blocked
system.cpu1.icache.avg_blocked_cycles::no_targets          nan                       # average number of cycles each access was blocked
system.cpu1.icache.writebacks::.writebacks          500                       # number of writebacks
system.cpu1.icache.writebacks::total              500                       # number of writebacks
system.cpu1.icache.demand_mshr_misses::.cpu1.inst         1010                       # number of demand (read+write) MSHR misses
system.cpu1.icache.demand_mshr_misses::total         1010                       # number of demand (read+write) MSHR misses
system.cpu1.icache.overall_mshr_misses::.cpu1.inst         1010                       # number of overall MSHR misses
system.cpu1.icache.overall_mshr_misses::total         1010                       # number of overall MSHR misses
system.cpu1.icache.demand_mshr_miss_latency::.cpu1.inst     80789463                       # number of demand (read+write) MSHR miss cycles
system.cpu1.icache.demand_mshr_miss_latency::total     80789463                       # number of demand (read+write) MSHR miss cycles
system.cpu1.icache.overall_mshr_miss_latency::.cpu1.inst     80789463                       # number of overall MSHR miss cycles
system.cpu1.icache.overall_mshr_miss_latency::total     80789463                       # number of overall MSHR miss cycles
system.cpu1.icache.demand_mshr_miss_rate::.cpu1.inst     0.020657                       # mshr miss rate for demand accesses
system.cpu1.icache.demand_mshr_miss_rate::total     0.020657                       # mshr miss rate for demand accesses
system.cpu1.icache.overall_mshr_miss_rate::.cpu1.inst     0.020657                       # mshr miss rate for overall accesses
system.cpu1.icache.overall_mshr_miss_rate::total     0.020657                       # mshr miss rate for overall accesses
system.cpu1.icache.demand_avg_mshr_miss_latency::.cpu1.inst 79989.567327                       # average overall mshr miss latency
system.cpu1.icache.demand_avg_mshr_miss_latency::total 79989.567327                       # average overall mshr miss latency
system.cpu1.icache.overall_avg_mshr_miss_latency::.cpu1.inst 79989.567327                       # average overall mshr miss latency
system.cpu1.icache.overall_avg_mshr_miss_latency::total 79989.567327                       # average overall mshr miss latency
system.cpu1.icache.replacements                   500                       # number of replacements
system.cpu1.icache.ReadReq_hits::.cpu1.inst        47885                       # number of ReadReq hits
system.cpu1.icache.ReadReq_hits::total          47885                       # number of ReadReq hits
system.cpu1.icache.ReadReq_misses::.cpu1.inst         1010                       # number of ReadReq misses
system.cpu1.icache.ReadReq_misses::total         1010                       # number of ReadReq misses
system.cpu1.icache.ReadReq_miss_latency::.cpu1.inst     81462123                       # number of ReadReq miss cycles
system.cpu1.icache.ReadReq_miss_latency::total     81462123                       # number of ReadReq miss cycles
system.cpu1.icache.ReadReq_accesses::.cpu1.inst        48895                       # number of ReadReq accesses(hits+misses)
system.cpu1.icache.ReadReq_accesses::total        48895                       # number of ReadReq accesses(hits+misses)
system.cpu1.icache.ReadReq_miss_rate::.cpu1.inst     0.020657                       # miss rate for ReadReq accesses
system.cpu1.icache.ReadReq_miss_rate::total     0.020657                       # miss rate for ReadReq accesses
system.cpu1.icache.ReadReq_avg_miss_latency::.cpu1.inst 80655.567327                       # average ReadReq miss latency
system.cpu1.icache.ReadReq_avg_miss_latency::total 80655.567327                       # average ReadReq miss latency
system.cpu1.icache.ReadReq_mshr_misses::.cpu1.inst         1010                       # number of ReadReq MSHR misses
system.cpu1.icache.ReadReq_mshr_misses::total         1010                       # number of ReadReq MSHR misses
system.cpu1.icache.ReadReq_mshr_miss_latency::.cpu1.inst     80789463                       # number of ReadReq MSHR miss cycles
system.cpu1.icache.ReadReq_mshr_miss_latency::total     80789463                       # number of ReadReq MSHR miss cycles
system.cpu1.icache.ReadReq_mshr_miss_rate::.cpu1.inst     0.020657                       # mshr miss rate for ReadReq accesses
system.cpu1.icache.ReadReq_mshr_miss_rate::total     0.020657                       # mshr miss rate for ReadReq accesses
system.cpu1.icache.ReadReq_avg_mshr_miss_latency::.cpu1.inst 79989.567327                       # average ReadReq mshr miss latency
system.cpu1.icache.ReadReq_avg_mshr_miss_latency::total 79989.567327                       # average ReadReq mshr miss latency
system.cpu1.icache.tags.pwrStateResidencyTicks::UNDEFINED 1839694057740                       # Cumulative time (in ticks) in various power states
system.cpu1.icache.tags.tagsinuse          509.984307                       # Cycle average of tags in use
system.cpu1.icache.tags.total_refs              48895                       # Total number of references to valid blocks.
system.cpu1.icache.tags.sampled_refs             1010                       # Sample count of references to valid blocks.
system.cpu1.icache.tags.avg_refs            48.410891                       # Average number of references to valid blocks.
system.cpu1.icache.tags.warmup_cycle            89244                       # Cycle when the warmup percentage was hit.
system.cpu1.icache.tags.occ_blocks::.cpu1.inst   509.984307                       # Average occupied blocks per requestor
system.cpu1.icache.tags.occ_percent::.cpu1.inst     0.996063                       # Average percentage of cache occupancy
system.cpu1.icache.tags.occ_percent::total     0.996063                       # Average percentage of cache occupancy
system.cpu1.icache.tags.occ_task_id_blocks::1024          510                       # Occupied blocks per task id
system.cpu1.icache.tags.age_task_id_blocks_1024::4          510                       # Occupied blocks per task id
system.cpu1.icache.tags.occ_task_id_percent::1024     0.996094                       # Percentage of cache occupancy per task id
system.cpu1.icache.tags.tag_accesses           392170                       # Number of tag accesses
system.cpu1.icache.tags.data_accesses          392170                       # Number of data accesses
system.cpu1.icache.tags.repl_invalid                0                       # Number of initial replacements
system.cpu1.icache.tags.repl_valid_tag              0                       # Number of local replacements
system.cpu1.icache.tags.repl_valid_data             0                       # Number of global replacements
system.cpu1.dtb.walker.pwrStateResidencyTicks::UNDEFINED 1839694057740                       # Cumulative time (in ticks) in various power states
system.cpu1.interrupts.clk_domain.clock          5328                       # Clock period in ticks
system.cpu1.itb_walker_cache.pwrStateResidencyTicks::UNDEFINED 1839694057740                       # Cumulative time (in ticks) in various power states
system.cpu1.itb_walker_cache.blocked_cycles::no_mshrs            0                       # number of cycles access was blocked
system.cpu1.itb_walker_cache.blocked_cycles::no_targets            0                       # number of cycles access was blocked
system.cpu1.itb_walker_cache.blocked::no_mshrs            0                       # number of cycles access was blocked
system.cpu1.itb_walker_cache.blocked::no_targets            0                       # number of cycles access was blocked
system.cpu1.itb_walker_cache.avg_blocked_cycles::no_mshrs          nan                       # average number of cycles each access was blocked
system.cpu1.itb_walker_cache.avg_blocked_cycles::no_targets          nan                       # average number of cycles each access was blocked
system.cpu1.itb_walker_cache.replacements            0                       # number of replacements
system.cpu1.itb_walker_cache.tags.pwrStateResidencyTicks::UNDEFINED 1839694057740                       # Cumulative time (in ticks) in various power states
system.cpu1.itb_walker_cache.tags.tagsinuse            0                       # Cycle average of tags in use
system.cpu1.itb_walker_cache.tags.total_refs            0                       # Total number of references to valid blocks.
system.cpu1.itb_walker_cache.tags.sampled_refs            0                       # Sample count of references to valid blocks.
system.cpu1.itb_walker_cache.tags.avg_refs          nan                       # Average number of references to valid blocks.
system.cpu1.itb_walker_cache.tags.warmup_cycle            0                       # Cycle when the warmup percentage was hit.
system.cpu1.itb_walker_cache.tags.tag_accesses            0                       # Number of tag accesses
system.cpu1.itb_walker_cache.tags.data_accesses            0                       # Number of data accesses
system.cpu1.itb_walker_cache.tags.repl_invalid            0                       # Number of initial replacements
system.cpu1.itb_walker_cache.tags.repl_valid_tag            0                       # Number of local replacements
system.cpu1.itb_walker_cache.tags.repl_valid_data            0                       # Number of global replacements
system.cpu1.itb.walker.pwrStateResidencyTicks::UNDEFINED 1839694057740                       # Cumulative time (in ticks) in various power states
system.cpu1.dtb_walker_cache.pwrStateResidencyTicks::UNDEFINED 1839694057740                       # Cumulative time (in ticks) in various power states
system.cpu1.dtb_walker_cache.blocked_cycles::no_mshrs            0                       # number of cycles access was blocked
system.cpu1.dtb_walker_cache.blocked_cycles::no_targets            0                       # number of cycles access was blocked
system.cpu1.dtb_walker_cache.blocked::no_mshrs            0                       # number of cycles access was blocked
system.cpu1.dtb_walker_cache.blocked::no_targets            0                       # number of cycles access was blocked
system.cpu1.dtb_walker_cache.avg_blocked_cycles::no_mshrs          nan                       # average number of cycles each access was blocked
system.cpu1.dtb_walker_cache.avg_blocked_cycles::no_targets          nan                       # average number of cycles each access was blocked
system.cpu1.dtb_walker_cache.replacements            0                       # number of replacements
system.cpu1.dtb_walker_cache.tags.pwrStateResidencyTicks::UNDEFINED 1839694057740                       # Cumulative time (in ticks) in various power states
system.cpu1.dtb_walker_cache.tags.tagsinuse            0                       # Cycle average of tags in use
system.cpu1.dtb_walker_cache.tags.total_refs            0                       # Total number of references to valid blocks.
system.cpu1.dtb_walker_cache.tags.sampled_refs            0                       # Sample count of references to valid blocks.
system.cpu1.dtb_walker_cache.tags.avg_refs          nan                       # Average number of references to valid blocks.
system.cpu1.dtb_walker_cache.tags.warmup_cycle            0                       # Cycle when the warmup percentage was hit.
system.cpu1.dtb_walker_cache.tags.tag_accesses            0                       # Number of tag accesses
system.cpu1.dtb_walker_cache.tags.data_accesses            0                       # Number of data accesses
system.cpu1.dtb_walker_cache.tags.repl_invalid            0                       # Number of initial replacements
system.cpu1.dtb_walker_cache.tags.repl_valid_tag            0                       # Number of local replacements
system.cpu1.dtb_walker_cache.tags.repl_valid_data            0                       # Number of global replacements
system.cpu1.dcache.pwrStateResidencyTicks::UNDEFINED 1839694057740                       # Cumulative time (in ticks) in various power states
system.cpu1.dcache.demand_hits::.cpu1.data        12942                       # number of demand (read+write) hits
system.cpu1.dcache.demand_hits::total           12942                       # number of demand (read+write) hits
system.cpu1.dcache.overall_hits::.cpu1.data        12942                       # number of overall hits
system.cpu1.dcache.overall_hits::total          12942                       # number of overall hits
system.cpu1.dcache.demand_misses::.cpu1.data         3572                       # number of demand (read+write) misses
system.cpu1.dcache.demand_misses::total          3572                       # number of demand (read+write) misses
system.cpu1.dcache.overall_misses::.cpu1.data         3572                       # number of overall misses
system.cpu1.dcache.overall_misses::total         3572                       # number of overall misses
system.cpu1.dcache.demand_miss_latency::.cpu1.data     85266648                       # number of demand (read+write) miss cycles
system.cpu1.dcache.demand_miss_latency::total     85266648                       # number of demand (read+write) miss cycles
system.cpu1.dcache.overall_miss_latency::.cpu1.data     85266648                       # number of overall miss cycles
system.cpu1.dcache.overall_miss_latency::total     85266648                       # number of overall miss cycles
system.cpu1.dcache.demand_accesses::.cpu1.data        16514                       # number of demand (read+write) accesses
system.cpu1.dcache.demand_accesses::total        16514                       # number of demand (read+write) accesses
system.cpu1.dcache.overall_accesses::.cpu1.data        16514                       # number of overall (read+write) accesses
system.cpu1.dcache.overall_accesses::total        16514                       # number of overall (read+write) accesses
system.cpu1.dcache.demand_miss_rate::.cpu1.data     0.216301                       # miss rate for demand accesses
system.cpu1.dcache.demand_miss_rate::total     0.216301                       # miss rate for demand accesses
system.cpu1.dcache.overall_miss_rate::.cpu1.data     0.216301                       # miss rate for overall accesses
system.cpu1.dcache.overall_miss_rate::total     0.216301                       # miss rate for overall accesses
system.cpu1.dcache.demand_avg_miss_latency::.cpu1.data 23870.842105                       # average overall miss latency
system.cpu1.dcache.demand_avg_miss_latency::total 23870.842105                       # average overall miss latency
system.cpu1.dcache.overall_avg_miss_latency::.cpu1.data 23870.842105                       # average overall miss latency
system.cpu1.dcache.overall_avg_miss_latency::total 23870.842105                       # average overall miss latency
system.cpu1.dcache.blocked_cycles::no_mshrs            0                       # number of cycles access was blocked
system.cpu1.dcache.blocked_cycles::no_targets            0                       # number of cycles access was blocked
system.cpu1.dcache.blocked::no_mshrs                0                       # number of cycles access was blocked
system.cpu1.dcache.blocked::no_targets              0                       # number of cycles access was blocked
system.cpu1.dcache.avg_blocked_cycles::no_mshrs          nan                       # average number of cycles each access was blocked
system.cpu1.dcache.avg_blocked_cycles::no_targets          nan                       # average number of cycles each access was blocked
system.cpu1.dcache.writebacks::.writebacks         3086                       # number of writebacks
system.cpu1.dcache.writebacks::total             3086                       # number of writebacks
system.cpu1.dcache.demand_mshr_misses::.cpu1.data         3572                       # number of demand (read+write) MSHR misses
system.cpu1.dcache.demand_mshr_misses::total         3572                       # number of demand (read+write) MSHR misses
system.cpu1.dcache.overall_mshr_misses::.cpu1.data         3572                       # number of overall MSHR misses
system.cpu1.dcache.overall_mshr_misses::total         3572                       # number of overall MSHR misses
system.cpu1.dcache.demand_mshr_miss_latency::.cpu1.data     82887696                       # number of demand (read+write) MSHR miss cycles
system.cpu1.dcache.demand_mshr_miss_latency::total     82887696                       # number of demand (read+write) MSHR miss cycles
system.cpu1.dcache.overall_mshr_miss_latency::.cpu1.data     82887696                       # number of overall MSHR miss cycles
system.cpu1.dcache.overall_mshr_miss_latency::total     82887696                       # number of overall MSHR miss cycles
system.cpu1.dcache.demand_mshr_miss_rate::.cpu1.data     0.216301                       # mshr miss rate for demand accesses
system.cpu1.dcache.demand_mshr_miss_rate::total     0.216301                       # mshr miss rate for demand accesses
system.cpu1.dcache.overall_mshr_miss_rate::.cpu1.data     0.216301                       # mshr miss rate for overall accesses
system.cpu1.dcache.overall_mshr_miss_rate::total     0.216301                       # mshr miss rate for overall accesses
system.cpu1.dcache.demand_avg_mshr_miss_latency::.cpu1.data 23204.842105                       # average overall mshr miss latency
system.cpu1.dcache.demand_avg_mshr_miss_latency::total 23204.842105                       # average overall mshr miss latency
system.cpu1.dcache.overall_avg_mshr_miss_latency::.cpu1.data 23204.842105                       # average overall mshr miss latency
system.cpu1.dcache.overall_avg_mshr_miss_latency::total 23204.842105                       # average overall mshr miss latency
system.cpu1.dcache.replacements                  3564                       # number of replacements
system.cpu1.dcache.ReadReq_hits::.cpu1.data         5546                       # number of ReadReq hits
system.cpu1.dcache.ReadReq_hits::total           5546                       # number of ReadReq hits
system.cpu1.dcache.ReadReq_misses::.cpu1.data         2492                       # number of ReadReq misses
system.cpu1.dcache.ReadReq_misses::total         2492                       # number of ReadReq misses
system.cpu1.dcache.ReadReq_miss_latency::.cpu1.data     43244046                       # number of ReadReq miss cycles
system.cpu1.dcache.ReadReq_miss_latency::total     43244046                       # number of ReadReq miss cycles
system.cpu1.dcache.ReadReq_accesses::.cpu1.data         8038                       # number of ReadReq accesses(hits+misses)
system.cpu1.dcache.ReadReq_accesses::total         8038                       # number of ReadReq accesses(hits+misses)
system.cpu1.dcache.ReadReq_miss_rate::.cpu1.data     0.310027                       # miss rate for ReadReq accesses
system.cpu1.dcache.ReadReq_miss_rate::total     0.310027                       # miss rate for ReadReq accesses
system.cpu1.dcache.ReadReq_avg_miss_latency::.cpu1.data 17353.148475                       # average ReadReq miss latency
system.cpu1.dcache.ReadReq_avg_miss_latency::total 17353.148475                       # average ReadReq miss latency
system.cpu1.dcache.ReadReq_mshr_misses::.cpu1.data         2492                       # number of ReadReq MSHR misses
system.cpu1.dcache.ReadReq_mshr_misses::total         2492                       # number of ReadReq MSHR misses
system.cpu1.dcache.ReadReq_mshr_miss_latency::.cpu1.data     41584374                       # number of ReadReq MSHR miss cycles
system.cpu1.dcache.ReadReq_mshr_miss_latency::total     41584374                       # number of ReadReq MSHR miss cycles
system.cpu1.dcache.ReadReq_mshr_miss_rate::.cpu1.data     0.310027                       # mshr miss rate for ReadReq accesses
system.cpu1.dcache.ReadReq_mshr_miss_rate::total     0.310027                       # mshr miss rate for ReadReq accesses
system.cpu1.dcache.ReadReq_avg_mshr_miss_latency::.cpu1.data 16687.148475                       # average ReadReq mshr miss latency
system.cpu1.dcache.ReadReq_avg_mshr_miss_latency::total 16687.148475                       # average ReadReq mshr miss latency
system.cpu1.dcache.WriteReq_hits::.cpu1.data         7396                       # number of WriteReq hits
system.cpu1.dcache.WriteReq_hits::total          7396                       # number of WriteReq hits
system.cpu1.dcache.WriteReq_misses::.cpu1.data         1080                       # number of WriteReq misses
system.cpu1.dcache.WriteReq_misses::total         1080                       # number of WriteReq misses
[...]
system.mem_ctrls.wrQLenPdf::120                     0                       # What write queue length does an incoming req see
system.mem_ctrls.wrQLenPdf::121                     0                       # What write queue length does an incoming req see
system.mem_ctrls.wrQLenPdf::122                     0                       # What write queue length does an incoming req see
system.mem_ctrls.wrQLenPdf::123                     0                       # What write queue length does an incoming req see
system.mem_ctrls.wrQLenPdf::124                     0                       # What write queue length does an incoming req see
system.mem_ctrls.wrQLenPdf::125                     0                       # What write queue length does an incoming req see
system.mem_ctrls.wrQLenPdf::126                     0                       # What write queue length does an incoming req see
system.mem_ctrls.wrQLenPdf::127                     0                       # What write queue length does an incoming req see
system.mem_ctrls.bytesPerActivate::samples      5766697                       # Bytes accessed per row activation
system.mem_ctrls.bytesPerActivate::mean            64                       # Bytes accessed per row activation
system.mem_ctrls.bytesPerActivate::gmean    64.000000                       # Bytes accessed per row activation
system.mem_ctrls.bytesPerActivate::64-71      5766697    100.00%    100.00% # Bytes accessed per row activation
system.mem_ctrls.bytesPerActivate::total      5766697                       # Bytes accessed per row activation
system.mem_ctrls.rdPerTurnAround::samples           31                       # Reads before turning the bus around for writes
system.mem_ctrls.rdPerTurnAround::mean   46105.225806                       # Reads before turning the bus around for writes
system.mem_ctrls.rdPerTurnAround::gmean  25284.097162                       # Reads before turning the bus around for writes
system.mem_ctrls.rdPerTurnAround::stdev  68835.278790                       # Reads before turning the bus around for writes
system.mem_ctrls.rdPerTurnAround::0-8191            1      3.23%      3.23% # Reads before turning the bus around for writes
system.mem_ctrls.rdPerTurnAround::8192-16383           11     35.48%     38.71% # Reads before turning the bus around for writes
system.mem_ctrls.rdPerTurnAround::16384-24575            6     19.35%     58.06% # Reads before turning the bus around for writes
system.mem_ctrls.rdPerTurnAround::24576-32767            2      6.45%     64.52% # Reads before turning the bus around for writes
system.mem_ctrls.rdPerTurnAround::32768-40959            3      9.68%     74.19% # Reads before turning the bus around for writes
system.mem_ctrls.rdPerTurnAround::40960-49151            2      6.45%     80.65% # Reads before turning the bus around for writes
system.mem_ctrls.rdPerTurnAround::57344-65535            1      3.23%     83.87% # Reads before turning the bus around for writes
system.mem_ctrls.rdPerTurnAround::65536-73727            1      3.23%     87.10% # Reads before turning the bus around for writes
system.mem_ctrls.rdPerTurnAround::90112-98303            1      3.23%     90.32% # Reads before turning the bus around for writes
system.mem_ctrls.rdPerTurnAround::147456-155647            1      3.23%     93.55% # Reads before turning the bus around for writes
system.mem_ctrls.rdPerTurnAround::262144-270335            1      3.23%     96.77% # Reads before turning the bus around for writes
system.mem_ctrls.rdPerTurnAround::286720-294911            1      3.23%    100.00% # Reads before turning the bus around for writes
system.mem_ctrls.rdPerTurnAround::total            31                       # Reads before turning the bus around for writes
system.mem_ctrls.wrPerTurnAround::samples           31                       # Writes before turning the bus around for reads
system.mem_ctrls.wrPerTurnAround::mean      17.870968                       # Writes before turning the bus around for reads
system.mem_ctrls.wrPerTurnAround::gmean     17.863738                       # Writes before turning the bus around for reads
system.mem_ctrls.wrPerTurnAround::stdev      0.499462                       # Writes before turning the bus around for reads
system.mem_ctrls.wrPerTurnAround::16                2      6.45%      6.45% # Writes before turning the bus around for reads
system.mem_ctrls.wrPerTurnAround::18               29     93.55%    100.00% # Writes before turning the bus around for reads
system.mem_ctrls.wrPerTurnAround::total            31                       # Writes before turning the bus around for reads
system.mem_ctrls.bytesReadDRAM              369033152                       # Total number of bytes read from DRAM
system.mem_ctrls.bytesReadWrQ                   16576                       # Total number of bytes read from write queue
system.mem_ctrls.bytesWritten                   35456                       # Total number of bytes written to DRAM
system.mem_ctrls.bytesReadSys               369049728                       # Total read bytes from the system interface side
system.mem_ctrls.bytesWrittenSys                53760                       # Total written bytes from the system interface side
system.mem_ctrls.avgRdBW                       200.59                       # Average DRAM read bandwidth in MiByte/s
system.mem_ctrls.avgWrBW                         0.02                       # Average achieved write bandwidth in MiByte/s
system.mem_ctrls.avgRdBWSys                    200.60                       # Average system read bandwidth in MiByte/s
system.mem_ctrls.avgWrBWSys                      0.03                       # Average system write bandwidth in MiByte/s
system.mem_ctrls.peakBW                      19207.00                       # Theoretical peak bandwidth in MiByte/s
system.mem_ctrls.busUtil                         1.04                       # Data bus utilization in percentage
system.mem_ctrls.busUtilRead                     1.04                       # Data bus utilization in percentage for reads
system.mem_ctrls.busUtilWrite                    0.00                       # Data bus utilization in percentage for writes
system.mem_ctrls.totGap                  1839693702429                       # Total gap between requests
system.mem_ctrls.avgGap                     318990.20                       # Average gap between requests
system.mem_ctrls.masterReadBytes::.cpu0.inst        28928                       # Per-master bytes read from memory
system.mem_ctrls.masterReadBytes::.cpu0.data    368904896                       # Per-master bytes read from memory
system.mem_ctrls.masterReadBytes::.cpu1.inst        60800                       # Per-master bytes read from memory
system.mem_ctrls.masterReadBytes::.cpu1.data        38528                       # Per-master bytes read from memory
system.mem_ctrls.masterWriteBytes::.writebacks        35456                       # Per-master bytes write to memory
system.mem_ctrls.masterReadRate::.cpu0.inst 15724.353665379034                       # Per-master bytes read from memory rate (Bytes/sec)
system.mem_ctrls.masterReadRate::.cpu0.data 200525133.213283717632                       # Per-master bytes read from memory rate (Bytes/sec)
system.mem_ctrls.masterReadRate::.cpu1.inst 33048.973411747975                       # Per-master bytes read from memory rate (Bytes/sec)
system.mem_ctrls.masterReadRate::.cpu1.data 20942.612625128713                       # Per-master bytes read from memory rate (Bytes/sec)
system.mem_ctrls.masterWriteRate::.writebacks 19272.769758008817                       # Per-master bytes write to memory rate (Bytes/sec)
system.mem_ctrls.masterReadAccesses::.cpu0.inst          452                       # Per-master read serviced memory accesses
system.mem_ctrls.masterReadAccesses::.cpu0.data      5764398                       # Per-master read serviced memory accesses
system.mem_ctrls.masterReadAccesses::.cpu1.inst          950                       # Per-master read serviced memory accesses
system.mem_ctrls.masterReadAccesses::.cpu1.data          602                       # Per-master read serviced memory accesses
system.mem_ctrls.masterWriteAccesses::.writebacks          840                       # Per-master write serviced memory accesses
system.mem_ctrls.masterReadTotalLat::.cpu0.inst     15838510                       # Per-master read total memory access latency
system.mem_ctrls.masterReadTotalLat::.cpu0.data 224425703487                       # Per-master read total memory access latency
system.mem_ctrls.masterReadTotalLat::.cpu1.inst     34205231                       # Per-master read total memory access latency
system.mem_ctrls.masterReadTotalLat::.cpu1.data     21437376                       # Per-master read total memory access latency
system.mem_ctrls.masterWriteTotalLat::.writebacks 16110150735262                       # Per-master write total memory access latency
system.mem_ctrls.masterReadAvgLat::.cpu0.inst     35040.95                       # Per-master read average memory access latency
system.mem_ctrls.masterReadAvgLat::.cpu0.data     38933.07                       # Per-master read average memory access latency
system.mem_ctrls.masterReadAvgLat::.cpu1.inst     36005.51                       # Per-master read average memory access latency
system.mem_ctrls.masterReadAvgLat::.cpu1.data     35610.26                       # Per-master read average memory access latency
system.mem_ctrls.masterWriteAvgLat::.writebacks 19178750875.31                       # Per-master write average memory access latency
system.mem_ctrls.pageHitRate                     0.00                       # Row buffer hit rate, read and write combined
system.mem_ctrls.rank1.actEnergy         4498165093.969896                       # Energy for activate commands per rank (pJ)
system.mem_ctrls.rank1.preEnergy         7940991454.341004                       # Energy for precharge commands per rank (pJ)
system.mem_ctrls.rank1.readEnergy        7911435679.420418                       # Energy for read commands per rank (pJ)
system.mem_ctrls.rank1.writeEnergy       620431.728000                       # Energy for write commands per rank (pJ)
system.mem_ctrls.rank1.refreshEnergy     159695880248.589905                       # Energy for refresh commands per rank (pJ)
system.mem_ctrls.rank1.actBackEnergy     81234785305.246292                       # Energy for active background per rank (pJ)
system.mem_ctrls.rank1.preBackEnergy     544395273488.409302                       # Energy for precharge background per rank (pJ)
system.mem_ctrls.rank1.actPowerDownEnergy            0                       # Energy for active power-down per rank (pJ)
system.mem_ctrls.rank1.prePowerDownEnergy            0                       # Energy for precharge power-down per rank (pJ)
system.mem_ctrls.rank1.selfRefreshEnergy            0                       # Energy for self refresh per rank (pJ)
system.mem_ctrls.rank1.totalEnergy       805677151701.422363                       # Total energy per rank (pJ)
system.mem_ctrls.rank1.averagePower        437.940835                       # Core power per rank (mW)
system.mem_ctrls.rank1.totalIdleTime                0                       # Total Idle time Per DRAM Rank
system.mem_ctrls.rank1.memoryStateTime::IDLE 1623854832055                       # Time in different power states
system.mem_ctrls.rank1.memoryStateTime::REF  82700450000                       # Time in different power states
system.mem_ctrls.rank1.memoryStateTime::SREF            0                       # Time in different power states
system.mem_ctrls.rank1.memoryStateTime::PRE_PDN            0                       # Time in different power states
system.mem_ctrls.rank1.memoryStateTime::ACT 133138775685                       # Time in different power states
system.mem_ctrls.rank1.memoryStateTime::ACT_PDN            0                       # Time in different power states
system.mem_ctrls.rank0.actEnergy         4494283807.105886                       # Energy for activate commands per rank (pJ)
system.mem_ctrls.rank0.preEnergy         7934139490.223369                       # Energy for precharge commands per rank (pJ)
system.mem_ctrls.rank0.readEnergy        7904531794.079671                       # Energy for read commands per rank (pJ)
system.mem_ctrls.rank0.writeEnergy       686485.296000                       # Energy for write commands per rank (pJ)
system.mem_ctrls.rank0.refreshEnergy     159695880248.589905                       # Energy for refresh commands per rank (pJ)
system.mem_ctrls.rank0.actBackEnergy     81197039843.473785                       # Energy for active background per rank (pJ)
system.mem_ctrls.rank0.preBackEnergy     544421331269.134094                       # Energy for precharge background per rank (pJ)
system.mem_ctrls.rank0.actPowerDownEnergy            0                       # Energy for active power-down per rank (pJ)
system.mem_ctrls.rank0.prePowerDownEnergy            0                       # Energy for precharge power-down per rank (pJ)
system.mem_ctrls.rank0.selfRefreshEnergy            0                       # Energy for self refresh per rank (pJ)
system.mem_ctrls.rank0.totalEnergy       805647892937.623535                       # Total energy per rank (pJ)
system.mem_ctrls.rank0.averagePower        437.924931                       # Core power per rank (mW)
system.mem_ctrls.rank0.totalIdleTime                0                       # Total Idle time Per DRAM Rank
system.mem_ctrls.rank0.memoryStateTime::IDLE 1623971481762                       # Time in different power states
system.mem_ctrls.rank0.memoryStateTime::REF  82700450000                       # Time in different power states
system.mem_ctrls.rank0.memoryStateTime::SREF            0                       # Time in different power states
system.mem_ctrls.rank0.memoryStateTime::PRE_PDN            0                       # Time in different power states
system.mem_ctrls.rank0.memoryStateTime::ACT 133022125978                       # Time in different power states
system.mem_ctrls.rank0.memoryStateTime::ACT_PDN            0                       # Time in different power states
system.cpu_clk_domain.clock                       333                       # Clock period in ticks
system.tol2bus.pwrStateResidencyTicks::UNDEFINED 1839694057740                       # Cumulative time (in ticks) in various power states
system.tol2bus.trans_dist::ReadResp          12505897                       # Transaction distribution
system.tol2bus.trans_dist::WritebackDirty         6050                       # Transaction distribution
system.tol2bus.trans_dist::WritebackClean          540                       # Transaction distribution
system.tol2bus.trans_dist::CleanEvict        18004806                       # Transaction distribution
system.tol2bus.trans_dist::ReadExReq             2159                       # Transaction distribution
system.tol2bus.trans_dist::ReadExResp            2159                       # Transaction distribution
system.tol2bus.trans_dist::ReadCleanReq          1463                       # Transaction distribution
system.tol2bus.trans_dist::ReadSharedReq     12504434                       # Transaction distribution
system.tol2bus.pkt_count_system.cpu0.icache.mem_side::system.l2.cpu_side          946                       # Packet count per connected master and slave (bytes)
system.tol2bus.pkt_count_system.cpu0.dcache.mem_side::system.l2.cpu_side     37509055                       # Packet count per connected master and slave (bytes)
system.tol2bus.pkt_count_system.cpu1.icache.mem_side::system.l2.cpu_side         2520                       # Packet count per connected master and slave (bytes)
system.tol2bus.pkt_count_system.cpu1.dcache.mem_side::system.l2.cpu_side        10708                       # Packet count per connected master and slave (bytes)
system.tol2bus.pkt_count::total              37523229                       # Packet count per connected master and slave (bytes)
system.tol2bus.pkt_size_system.cpu0.icache.mem_side::system.l2.cpu_side        31552                       # Cumulative packet size per connected master and slave (bytes)
system.tol2bus.pkt_size_system.cpu0.dcache.mem_side::system.l2.cpu_side    800329280                       # Cumulative packet size per connected master and slave (bytes)
system.tol2bus.pkt_size_system.cpu1.icache.mem_side::system.l2.cpu_side        96640                       # Cumulative packet size per connected master and slave (bytes)
system.tol2bus.pkt_size_system.cpu1.dcache.mem_side::system.l2.cpu_side       426112                       # Cumulative packet size per connected master and slave (bytes)
system.tol2bus.pkt_size::total              800883584                       # Cumulative packet size per connected master and slave (bytes)
system.tol2bus.snoops                         5504279                       # Total snoops (count)
system.tol2bus.snoopTraffic                     53760                       # Total snoop traffic (bytes)
system.tol2bus.snoop_fanout::samples         18012335                       # Request fanout histogram
system.tol2bus.snoop_fanout::mean            0.000062                       # Request fanout histogram
system.tol2bus.snoop_fanout::stdev           0.007860                       # Request fanout histogram
system.tol2bus.snoop_fanout::underflows             0      0.00%      0.00% # Request fanout histogram
system.tol2bus.snoop_fanout::0               18011222     99.99%     99.99% # Request fanout histogram
system.tol2bus.snoop_fanout::1                   1113      0.01%    100.00% # Request fanout histogram
system.tol2bus.snoop_fanout::2                      0      0.00%    100.00% # Request fanout histogram
system.tol2bus.snoop_fanout::3                      0      0.00%    100.00% # Request fanout histogram
system.tol2bus.snoop_fanout::4                      0      0.00%    100.00% # Request fanout histogram
system.tol2bus.snoop_fanout::5                      0      0.00%    100.00% # Request fanout histogram
system.tol2bus.snoop_fanout::6                      0      0.00%    100.00% # Request fanout histogram
system.tol2bus.snoop_fanout::7                      0      0.00%    100.00% # Request fanout histogram
system.tol2bus.snoop_fanout::8                      0      0.00%    100.00% # Request fanout histogram
system.tol2bus.snoop_fanout::overflows              0      0.00%    100.00% # Request fanout histogram
system.tol2bus.snoop_fanout::min_value              0                       # Request fanout histogram
system.tol2bus.snoop_fanout::max_value              1                       # Request fanout histogram
system.tol2bus.snoop_fanout::total           18012335                       # Request fanout histogram
system.tol2bus.reqLayer0.occupancy         8333882109                       # Layer occupancy (ticks)
system.tol2bus.reqLayer0.utilization              0.5                       # Layer utilization (%)
system.tol2bus.respLayer5.occupancy           3568428                       # Layer occupancy (ticks)
system.tol2bus.respLayer5.utilization             0.0                       # Layer utilization (%)
system.tol2bus.respLayer4.occupancy           1009322                       # Layer occupancy (ticks)
system.tol2bus.respLayer4.utilization             0.0                       # Layer utilization (%)
system.tol2bus.respLayer1.occupancy       12490519971                       # Layer occupancy (ticks)
system.tol2bus.respLayer1.utilization             0.7                       # Layer utilization (%)
system.tol2bus.respLayer0.occupancy            452547                       # Layer occupancy (ticks)
system.tol2bus.respLayer0.utilization             0.0                       # Layer utilization (%)

---------- End Simulation Statistics   ----------
