
---------- Begin Simulation Statistics ----------
final_tick                               881682474960                       # Number of ticks from beginning of simulation (restored from checkpoints and never reset)
host_inst_rate                                 360310                       # Simulator instruction rate (inst/s)
host_mem_usage                               10701692                       # Number of bytes of host memory used
host_op_rate                                   720631                       # Simulator op (including micro ops) rate (op/s)
host_seconds                                  1025.97                       # Real time elapsed on the host
host_tick_rate                              859366977                       # Simulator tick rate (ticks/s)
sim_freq                                 1000000000000                       # Frequency of simulated ticks
sim_insts                                   369666476                       # Number of instructions simulated
sim_ops                                     739343843                       # Number of ops (including micro ops) simulated
sim_seconds                                  0.881682                       # Number of seconds simulated
sim_ticks                                881682474960                       # Number of ticks simulated
system.cpu.Branches                          67206273                       # Number of branches fetched
system.cpu.committedInsts                   369666476                       # Number of instructions committed
system.cpu.committedOps                     739343843                       # Number of ops (including micro ops) committed
system.cpu.dtb.rdAccesses                   134430641                       # TLB accesses on read requests
system.cpu.dtb.rdMisses                         65585                       # TLB misses on read requests
system.cpu.dtb.wrAccesses                    67242749                       # TLB accesses on write requests
system.cpu.dtb.wrMisses                            16                       # TLB misses on write requests
system.cpu.idle_fraction                     0.000000                       # Percentage of idle cycles
system.cpu.itb.rdAccesses                           0                       # TLB accesses on read requests
system.cpu.itb.rdMisses                             0                       # TLB misses on read requests
system.cpu.itb.wrAccesses                   571169630                       # TLB accesses on write requests
system.cpu.itb.wrMisses                            57                       # TLB misses on write requests
system.cpu.not_idle_fraction                 1.000000                       # Percentage of non-idle cycles
system.cpu.numCycles                       2647695120                       # number of cpu cycles simulated
system.cpu.numWorkItemsCompleted                    0                       # number of work items this cpu completed
system.cpu.numWorkItemsStarted                      0                       # number of work items this cpu started
system.cpu.num_busy_cycles               2647695119.996997                       # Number of busy cycles
system.cpu.num_cc_register_reads            168206247                       # number of times the CC registers were read
system.cpu.num_cc_register_writes           201703282                       # number of times the CC registers were written
system.cpu.num_conditional_control_insts     33617051                       # number of instructions that are conditional controls
system.cpu.num_fp_alu_accesses                   3969                       # Number of float alu accesses
system.cpu.num_fp_insts                          3969                       # number of float instructions
system.cpu.num_fp_register_reads                 5997                       # number of times the floating registers were read
system.cpu.num_fp_register_writes                3060                       # number of times the floating registers were written
system.cpu.num_func_calls                       13006                       # number of times a function call or return occured
system.cpu.num_idle_cycles                   0.003003                       # Number of idle cycles
system.cpu.num_int_alu_accesses             739334015                       # Number of integer alu accesses
system.cpu.num_int_insts                    739334015                       # number of integer instructions
system.cpu.num_int_register_reads          1411778527                       # number of times the integer registers were read
system.cpu.num_int_register_writes          604887716                       # number of times the integer registers were written
system.cpu.num_load_insts                   134430617                       # Number of load instructions
system.cpu.num_mem_refs                     201673363                       # number of memory refs
system.cpu.num_store_insts                   67242746                       # Number of store instructions
system.cpu.num_vec_alu_accesses                     0                       # Number of vector alu accesses
system.cpu.num_vec_insts                            0                       # number of vector instructions
system.cpu.num_vec_register_reads                   0                       # number of times the vector registers were read
system.cpu.num_vec_register_writes                  0                       # number of times the vector registers were written
system.cpu.op_class::No_OpClass                  7326      0.00%      0.00% # Class of executed instruction
system.cpu.op_class::IntAlu                 537658212     72.72%     72.72% # Class of executed instruction
system.cpu.op_class::IntMult                     1899      0.00%     72.72% # Class of executed instruction
system.cpu.op_class::IntDiv                       572      0.00%     72.72% # Class of executed instruction
system.cpu.op_class::FloatAdd                     247      0.00%     72.72% # Class of executed instruction
system.cpu.op_class::FloatCmp                       0      0.00%     72.72% # Class of executed instruction
system.cpu.op_class::FloatCvt                       0      0.00%     72.72% # Class of executed instruction
system.cpu.op_class::FloatMult                      0      0.00%     72.72% # Class of executed instruction
system.cpu.op_class::FloatMultAcc                   0      0.00%     72.72% # Class of executed instruction
system.cpu.op_class::FloatDiv                       0      0.00%     72.72% # Class of executed instruction
system.cpu.op_class::FloatMisc                      0      0.00%     72.72% # Class of executed instruction
system.cpu.op_class::FloatSqrt                      0      0.00%     72.72% # Class of executed instruction
system.cpu.op_class::SimdAdd                        0      0.00%     72.72% # Class of executed instruction
system.cpu.op_class::SimdAddAcc                     0      0.00%     72.72% # Class of executed instruction
system.cpu.op_class::SimdAlu                      552      0.00%     72.72% # Class of executed instruction
system.cpu.op_class::SimdCmp                        0      0.00%     72.72% # Class of executed instruction
system.cpu.op_class::SimdCvt                      506      0.00%     72.72% # Class of executed instruction
system.cpu.op_class::SimdMisc                    1166      0.00%     72.72% # Class of executed instruction
system.cpu.op_class::SimdMult                       0      0.00%     72.72% # Class of executed instruction
system.cpu.op_class::SimdMultAcc                    0      0.00%     72.72% # Class of executed instruction
system.cpu.op_class::SimdShift                      0      0.00%     72.72% # Class of executed instruction
system.cpu.op_class::SimdShiftAcc                   0      0.00%     72.72% # Class of executed instruction
system.cpu.op_class::SimdDiv                        0      0.00%     72.72% # Class of executed instruction
system.cpu.op_class::SimdSqrt                       0      0.00%     72.72% # Class of executed instruction
system.cpu.op_class::SimdFloatAdd                   0      0.00%     72.72% # Class of executed instruction
system.cpu.op_class::SimdFloatAlu                   0      0.00%     72.72% # Class of executed instruction
system.cpu.op_class::SimdFloatCmp                   0      0.00%     72.72% # Class of executed instruction
system.cpu.op_class::SimdFloatCvt                   0      0.00%     72.72% # Class of executed instruction
system.cpu.op_class::SimdFloatDiv                   0      0.00%     72.72% # Class of executed instruction
system.cpu.op_class::SimdFloatMisc                  0      0.00%     72.72% # Class of executed instruction
system.cpu.op_class::SimdFloatMult                  0      0.00%     72.72% # Class of executed instruction
system.cpu.op_class::SimdFloatMultAcc               0      0.00%     72.72% # Class of executed instruction
system.cpu.op_class::SimdFloatSqrt                  0      0.00%     72.72% # Class of executed instruction
system.cpu.op_class::SimdReduceAdd                  0      0.00%     72.72% # Class of executed instruction
system.cpu.op_class::SimdReduceAlu                  0      0.00%     72.72% # Class of executed instruction
system.cpu.op_class::SimdReduceCmp                  0      0.00%     72.72% # Class of executed instruction
system.cpu.op_class::SimdFloatReduceAdd             0      0.00%     72.72% # Class of executed instruction
system.cpu.op_class::SimdFloatReduceCmp             0      0.00%     72.72% # Class of executed instruction
system.cpu.op_class::SimdAes                        0      0.00%     72.72% # Class of executed instruction
system.cpu.op_class::SimdAesMix                     0      0.00%     72.72% # Class of executed instruction
system.cpu.op_class::SimdSha1Hash                   0      0.00%     72.72% # Class of executed instruction
system.cpu.op_class::SimdSha1Hash2                  0      0.00%     72.72% # Class of executed instruction
system.cpu.op_class::SimdSha256Hash                 0      0.00%     72.72% # Class of executed instruction
system.cpu.op_class::SimdSha256Hash2                0      0.00%     72.72% # Class of executed instruction
system.cpu.op_class::SimdShaSigma2                  0      0.00%     72.72% # Class of executed instruction
system.cpu.op_class::SimdShaSigma3                  0      0.00%     72.72% # Class of executed instruction
system.cpu.op_class::SimdPredAlu                    0      0.00%     72.72% # Class of executed instruction
system.cpu.op_class::MemRead                134430215     18.18%     90.91% # Class of executed instruction
system.cpu.op_class::MemWrite                67242115      9.09%    100.00% # Class of executed instruction
system.cpu.op_class::FloatMemRead                 402      0.00%    100.00% # Class of executed instruction
system.cpu.op_class::FloatMemWrite                631      0.00%    100.00% # Class of executed instruction
system.cpu.op_class::IprAccess                      0      0.00%    100.00% # Class of executed instruction
system.cpu.op_class::InstPrefetch                   0      0.00%    100.00% # Class of executed instruction
system.cpu.op_class::total                  739343843                       # Class of executed instruction
system.cpu.workload.numSyscalls                    16                       # Number of system calls
system.membus.snoop_filter.hit_multi_requests            0                       # Number of requests hitting in the snoop filter with multiple (>1) holders of the requested data.
system.membus.snoop_filter.hit_multi_snoops            0                       # Number of snoops hitting in the snoop filter with multiple (>1) holders of the requested data.
system.membus.snoop_filter.hit_single_requests      3913614                       # Number of requests hitting in the snoop filter with a single holder of the requested data.
system.membus.snoop_filter.hit_single_snoops            0                       # Number of snoops hitting in the snoop filter with a single holder of the requested data.
system.membus.snoop_filter.tot_requests       8089778                       # Total number of requests made to the snoop filter.
system.membus.snoop_filter.tot_snoops               0                       # Total number of snoops made to the snoop filter.
system.tol2bus.snoop_filter.hit_multi_requests            0                       # Number of requests hitting in the snoop filter with multiple (>1) holders of the requested data.
system.tol2bus.snoop_filter.hit_multi_snoops            0                       # Number of snoops hitting in the snoop filter with multiple (>1) holders of the requested data.
system.tol2bus.snoop_filter.hit_single_requests      4199476                       # Number of requests hitting in the snoop filter with a single holder of the requested data.
system.tol2bus.snoop_filter.hit_single_snoops          696                       # Number of snoops hitting in the snoop filter with a single holder of the requested data.
system.tol2bus.snoop_filter.tot_requests      8399464                       # Total number of requests made to the snoop filter.
system.tol2bus.snoop_filter.tot_snoops            696                       # Total number of snoops made to the snoop filter.
system.membus.pwrStateResidencyTicks::UNDEFINED 881682474960                       # Cumulative time (in ticks) in various power states
system.membus.trans_dist::ReadResp            4175851                       # Transaction distribution
system.membus.trans_dist::WritebackDirty          321                       # Transaction distribution
system.membus.trans_dist::CleanEvict          3913293                       # Transaction distribution
system.membus.trans_dist::ReadExReq               313                       # Transaction distribution
system.membus.trans_dist::ReadExResp              313                       # Transaction distribution
system.membus.trans_dist::ReadSharedReq       4175851                       # Transaction distribution
system.membus.pkt_count_system.l2.mem_side::system.mem_ctrls.port     12265942                       # Packet count per connected master and slave (bytes)
system.membus.pkt_count_system.l2.mem_side::total     12265942                       # Packet count per connected master and slave (bytes)
system.membus.pkt_count::total               12265942                       # Packet count per connected master and slave (bytes)
system.membus.pkt_size_system.l2.mem_side::system.mem_ctrls.port    267295040                       # Cumulative packet size per connected master and slave (bytes)
system.membus.pkt_size_system.l2.mem_side::total    267295040                       # Cumulative packet size per connected master and slave (bytes)
system.membus.pkt_size::total               267295040                       # Cumulative packet size per connected master and slave (bytes)
system.membus.snoops                                0                       # Total snoops (count)
system.membus.snoopTraffic                          0                       # Total snoop traffic (bytes)
system.membus.snoop_fanout::samples           4176164                       # Request fanout histogram
system.membus.snoop_fanout::mean                    0                       # Request fanout histogram
system.membus.snoop_fanout::stdev                   0                       # Request fanout histogram
system.membus.snoop_fanout::underflows              0      0.00%      0.00% # Request fanout histogram
system.membus.snoop_fanout::0                 4176164    100.00%    100.00% # Request fanout histogram
system.membus.snoop_fanout::1                       0      0.00%    100.00% # Request fanout histogram
system.membus.snoop_fanout::overflows               0      0.00%    100.00% # Request fanout histogram
system.membus.snoop_fanout::min_value               0                       # Request fanout histogram
system.membus.snoop_fanout::max_value               0                       # Request fanout histogram
system.membus.snoop_fanout::total             4176164                       # Request fanout histogram
system.membus.reqLayer2.occupancy         13736778200                       # Layer occupancy (ticks)
system.membus.reqLayer2.utilization               1.6                       # Layer utilization (%)
system.membus.respLayer1.occupancy        22351928691                       # Layer occupancy (ticks)
system.membus.respLayer1.utilization              2.5                       # Layer utilization (%)
system.tol2bus.pwrStateResidencyTicks::UNDEFINED 881682474960                       # Cumulative time (in ticks) in various power states
system.tol2bus.trans_dist::ReadResp           4198703                       # Transaction distribution
system.tol2bus.trans_dist::WritebackDirty         3151                       # Transaction distribution
system.tol2bus.trans_dist::WritebackClean          212                       # Transaction distribution
system.tol2bus.trans_dist::CleanEvict         8110308                       # Transaction distribution
system.tol2bus.trans_dist::ReadExReq             1285                       # Transaction distribution
system.tol2bus.trans_dist::ReadExResp            1285                       # Transaction distribution
system.tol2bus.trans_dist::ReadCleanReq           716                       # Transaction distribution
system.tol2bus.trans_dist::ReadSharedReq      4197987                       # Transaction distribution
system.tol2bus.pkt_count_system.cpu.icache.mem_side::system.l2.cpu_side         1644                       # Packet count per connected master and slave (bytes)
system.tol2bus.pkt_count_system.cpu.dcache.mem_side::system.l2.cpu_side     12597808                       # Packet count per connected master and slave (bytes)
system.tol2bus.pkt_count::total              12599452                       # Packet count per connected master and slave (bytes)
system.tol2bus.pkt_size_system.cpu.icache.mem_side::system.l2.cpu_side        59392                       # Cumulative packet size per connected master and slave (bytes)
system.tol2bus.pkt_size_system.cpu.dcache.mem_side::system.l2.cpu_side    268934528                       # Cumulative packet size per connected master and slave (bytes)
system.tol2bus.pkt_size::total              268993920                       # Cumulative packet size per connected master and slave (bytes)
system.tol2bus.snoops                         3914195                       # Total snoops (count)
system.tol2bus.snoopTraffic                     20544                       # Total snoop traffic (bytes)
system.tol2bus.snoop_fanout::samples          8114183                       # Request fanout histogram
system.tol2bus.snoop_fanout::mean            0.000086                       # Request fanout histogram
system.tol2bus.snoop_fanout::stdev           0.009261                       # Request fanout histogram
system.tol2bus.snoop_fanout::underflows             0      0.00%      0.00% # Request fanout histogram
system.tol2bus.snoop_fanout::0                8113487     99.99%     99.99% # Request fanout histogram
system.tol2bus.snoop_fanout::1                    696      0.01%    100.00% # Request fanout histogram
system.tol2bus.snoop_fanout::2                      0      0.00%    100.00% # Request fanout histogram
system.tol2bus.snoop_fanout::3                      0      0.00%    100.00% # Request fanout histogram
system.tol2bus.snoop_fanout::4                      0      0.00%    100.00% # Request fanout histogram
system.tol2bus.snoop_fanout::overflows              0      0.00%    100.00% # Request fanout histogram
system.tol2bus.snoop_fanout::min_value              0                       # Request fanout histogram
system.tol2bus.snoop_fanout::max_value              1                       # Request fanout histogram
system.tol2bus.snoop_fanout::total            8114183                       # Request fanout histogram
system.tol2bus.reqLayer0.occupancy         2799047484                       # Layer occupancy (ticks)
system.tol2bus.reqLayer0.utilization              0.3                       # Layer utilization (%)
system.tol2bus.respLayer1.occupancy        4195072728                       # Layer occupancy (ticks)
system.tol2bus.respLayer1.utilization             0.5                       # Layer utilization (%)
system.tol2bus.respLayer0.occupancy            715284                       # Layer occupancy (ticks)
system.tol2bus.respLayer0.utilization             0.0                       # Layer utilization (%)
system.voltage_domain.voltage                       1                       # Voltage in Volts
system.clk_domain.clock                          1000                       # Clock period in ticks
system.l2.pwrStateResidencyTicks::UNDEFINED 881682474960                       # Cumulative time (in ticks) in various power states
system.l2.demand_hits::.cpu.data                23824                       # number of demand (read+write) hits
system.l2.demand_hits::total                    23824                       # number of demand (read+write) hits
system.l2.overall_hits::.cpu.data               23824                       # number of overall hits
system.l2.overall_hits::total                   23824                       # number of overall hits
system.l2.demand_misses::.cpu.inst                716                       # number of demand (read+write) misses
system.l2.demand_misses::.cpu.data            4175448                       # number of demand (read+write) misses
system.l2.demand_misses::total                4176164                       # number of demand (read+write) misses
system.l2.overall_misses::.cpu.inst               716                       # number of overall misses
system.l2.overall_misses::.cpu.data           4175448                       # number of overall misses
system.l2.overall_misses::total               4176164                       # number of overall misses
system.l2.demand_miss_latency::.cpu.inst     60656949                       # number of demand (read+write) miss cycles
system.l2.demand_miss_latency::.cpu.data 362489230584                       # number of demand (read+write) miss cycles
system.l2.demand_miss_latency::total     362549887533                       # number of demand (read+write) miss cycles
system.l2.overall_miss_latency::.cpu.inst     60656949                       # number of overall miss cycles
system.l2.overall_miss_latency::.cpu.data 362489230584                       # number of overall miss cycles
system.l2.overall_miss_latency::total    362549887533                       # number of overall miss cycles
system.l2.demand_accesses::.cpu.inst              716                       # number of demand (read+write) accesses
system.l2.demand_accesses::.cpu.data          4199272                       # number of demand (read+write) accesses
system.l2.demand_accesses::total              4199988                       # number of demand (read+write) accesses
system.l2.overall_accesses::.cpu.inst             716                       # number of overall (read+write) accesses
system.l2.overall_accesses::.cpu.data         4199272                       # number of overall (read+write) accesses
system.l2.overall_accesses::total             4199988                       # number of overall (read+write) accesses
system.l2.demand_miss_rate::.cpu.inst               1                       # miss rate for demand accesses
system.l2.demand_miss_rate::.cpu.data        0.994327                       # miss rate for demand accesses
system.l2.demand_miss_rate::total            0.994328                       # miss rate for demand accesses
system.l2.overall_miss_rate::.cpu.inst              1                       # miss rate for overall accesses
system.l2.overall_miss_rate::.cpu.data       0.994327                       # miss rate for overall accesses
system.l2.overall_miss_rate::total           0.994328                       # miss rate for overall accesses
system.l2.demand_avg_miss_latency::.cpu.inst 84716.409218                       # average overall miss latency
system.l2.demand_avg_miss_latency::.cpu.data 86814.452146                       # average overall miss latency
system.l2.demand_avg_miss_latency::total 86814.092438                       # average overall miss latency
system.l2.overall_avg_miss_latency::.cpu.inst 84716.409218                       # average overall miss latency
system.l2.overall_avg_miss_latency::.cpu.data 86814.452146                       # average overall miss latency
system.l2.overall_avg_miss_latency::total 86814.092438                       # average overall miss latency
system.l2.blocked_cycles::no_mshrs                  0                       # number of cycles access was blocked
system.l2.blocked_cycles::no_targets                0                       # number of cycles access was blocked
system.l2.blocked::no_mshrs                         0                       # number of cycles access was blocked
system.l2.blocked::no_targets                       0                       # number of cycles access was blocked
system.l2.avg_blocked_cycles::no_mshrs            nan                       # average number of cycles each access was blocked
system.l2.avg_blocked_cycles::no_targets          nan                       # average number of cycles each access was blocked
system.l2.writebacks::.writebacks                 321                       # number of writebacks
system.l2.writebacks::total                       321                       # number of writebacks
system.l2.demand_mshr_misses::.cpu.inst           716                       # number of demand (read+write) MSHR misses
system.l2.demand_mshr_misses::.cpu.data       4175448                       # number of demand (read+write) MSHR misses
system.l2.demand_mshr_misses::total           4176164                       # number of demand (read+write) MSHR misses
system.l2.overall_mshr_misses::.cpu.inst          716                       # number of overall MSHR misses
system.l2.overall_mshr_misses::.cpu.data      4175448                       # number of overall MSHR misses
system.l2.overall_mshr_misses::total          4176164                       # number of overall MSHR misses
system.l2.demand_mshr_miss_latency::.cpu.inst     55768072                       # number of demand (read+write) MSHR miss cycles
system.l2.demand_mshr_miss_latency::.cpu.data 333985392360                       # number of demand (read+write) MSHR miss cycles
system.l2.demand_mshr_miss_latency::total 334041160432                       # number of demand (read+write) MSHR miss cycles
system.l2.overall_mshr_miss_latency::.cpu.inst     55768072                       # number of overall MSHR miss cycles
system.l2.overall_mshr_miss_latency::.cpu.data 333985392360                       # number of overall MSHR miss cycles
system.l2.overall_mshr_miss_latency::total 334041160432                       # number of overall MSHR miss cycles
system.l2.demand_mshr_miss_rate::.cpu.inst            1                       # mshr miss rate for demand accesses
system.l2.demand_mshr_miss_rate::.cpu.data     0.994327                       # mshr miss rate for demand accesses
system.l2.demand_mshr_miss_rate::total       0.994328                       # mshr miss rate for demand accesses
system.l2.overall_mshr_miss_rate::.cpu.inst            1                       # mshr miss rate for overall accesses
system.l2.overall_mshr_miss_rate::.cpu.data     0.994327                       # mshr miss rate for overall accesses
system.l2.overall_mshr_miss_rate::total      0.994328                       # mshr miss rate for overall accesses
system.l2.demand_avg_mshr_miss_latency::.cpu.inst 77888.368715                       # average overall mshr miss latency
system.l2.demand_avg_mshr_miss_latency::.cpu.data 79987.918029                       # average overall mshr miss latency
system.l2.demand_avg_mshr_miss_latency::total 79987.558063                       # average overall mshr miss latency
system.l2.overall_avg_mshr_miss_latency::.cpu.inst 77888.368715                       # average overall mshr miss latency
system.l2.overall_avg_mshr_miss_latency::.cpu.data 79987.918029                       # average overall mshr miss latency
system.l2.overall_avg_mshr_miss_latency::total 79987.558063                       # average overall mshr miss latency
system.l2.replacements                        3914195                       # number of replacements
system.l2.WritebackDirty_hits::.writebacks         2830                       # number of WritebackDirty hits
system.l2.WritebackDirty_hits::total             2830                       # number of WritebackDirty hits
system.l2.WritebackDirty_accesses::.writebacks         2830                       # number of WritebackDirty accesses(hits+misses)
system.l2.WritebackDirty_accesses::total         2830                       # number of WritebackDirty accesses(hits+misses)
system.l2.WritebackClean_hits::.writebacks          212                       # number of WritebackClean hits
system.l2.WritebackClean_hits::total              212                       # number of WritebackClean hits
system.l2.WritebackClean_accesses::.writebacks          212                       # number of WritebackClean accesses(hits+misses)
system.l2.WritebackClean_accesses::total          212                       # number of WritebackClean accesses(hits+misses)
system.l2.CleanEvict_mshr_misses::.writebacks          116                       # number of CleanEvict MSHR misses
system.l2.CleanEvict_mshr_misses::total           116                       # number of CleanEvict MSHR misses
system.l2.CleanEvict_mshr_miss_rate::.writebacks          inf                       # mshr miss rate for CleanEvict accesses
system.l2.CleanEvict_mshr_miss_rate::total          inf                       # mshr miss rate for CleanEvict accesses
system.l2.ReadExReq_hits::.cpu.data               972                       # number of ReadExReq hits
system.l2.ReadExReq_hits::total                   972                       # number of ReadExReq hits
system.l2.ReadExReq_misses::.cpu.data             313                       # number of ReadExReq misses
system.l2.ReadExReq_misses::total                 313                       # number of ReadExReq misses
system.l2.ReadExReq_miss_latency::.cpu.data     25455519                       # number of ReadExReq miss cycles
system.l2.ReadExReq_miss_latency::total      25455519                       # number of ReadExReq miss cycles
system.l2.ReadExReq_accesses::.cpu.data          1285                       # number of ReadExReq accesses(hits+misses)
system.l2.ReadExReq_accesses::total              1285                       # number of ReadExReq accesses(hits+misses)
system.l2.ReadExReq_miss_rate::.cpu.data     0.243580                       # miss rate for ReadExReq accesses
system.l2.ReadExReq_miss_rate::total         0.243580                       # miss rate for ReadExReq accesses
system.l2.ReadExReq_avg_miss_latency::.cpu.data 81327.536741                       # average ReadExReq miss latency
system.l2.ReadExReq_avg_miss_latency::total 81327.536741                       # average ReadExReq miss latency
system.l2.ReadExReq_mshr_misses::.cpu.data          313                       # number of ReadExReq MSHR misses
system.l2.ReadExReq_mshr_misses::total            313                       # number of ReadExReq MSHR misses
system.l2.ReadExReq_mshr_miss_latency::.cpu.data     23318096                       # number of ReadExReq MSHR miss cycles
system.l2.ReadExReq_mshr_miss_latency::total     23318096                       # number of ReadExReq MSHR miss cycles
system.l2.ReadExReq_mshr_miss_rate::.cpu.data     0.243580                       # mshr miss rate for ReadExReq accesses
system.l2.ReadExReq_mshr_miss_rate::total     0.243580                       # mshr miss rate for ReadExReq accesses
system.l2.ReadExReq_avg_mshr_miss_latency::.cpu.data 74498.709265                       # average ReadExReq mshr miss latency
system.l2.ReadExReq_avg_mshr_miss_latency::total 74498.709265                       # average ReadExReq mshr miss latency
system.l2.ReadCleanReq_misses::.cpu.inst          716                       # number of ReadCleanReq misses
system.l2.ReadCleanReq_misses::total              716                       # number of ReadCleanReq misses
system.l2.ReadCleanReq_miss_latency::.cpu.inst     60656949                       # number of ReadCleanReq miss cycles
system.l2.ReadCleanReq_miss_latency::total     60656949                       # number of ReadCleanReq miss cycles
system.l2.ReadCleanReq_accesses::.cpu.inst          716                       # number of ReadCleanReq accesses(hits+misses)
system.l2.ReadCleanReq_accesses::total            716                       # number of ReadCleanReq accesses(hits+misses)
system.l2.ReadCleanReq_miss_rate::.cpu.inst            1                       # miss rate for ReadCleanReq accesses
system.l2.ReadCleanReq_miss_rate::total             1                       # miss rate for ReadCleanReq accesses
system.l2.ReadCleanReq_avg_miss_latency::.cpu.inst 84716.409218                       # average ReadCleanReq miss latency
system.l2.ReadCleanReq_avg_miss_latency::total 84716.409218                       # average ReadCleanReq miss latency
system.l2.ReadCleanReq_mshr_misses::.cpu.inst          716                       # number of ReadCleanReq MSHR misses
system.l2.ReadCleanReq_mshr_misses::total          716                       # number of ReadCleanReq MSHR misses
system.l2.ReadCleanReq_mshr_miss_latency::.cpu.inst     55768072                       # number of ReadCleanReq MSHR miss cycles
system.l2.ReadCleanReq_mshr_miss_latency::total     55768072                       # number of ReadCleanReq MSHR miss cycles
system.l2.ReadCleanReq_mshr_miss_rate::.cpu.inst            1                       # mshr miss rate for ReadCleanReq accesses
system.l2.ReadCleanReq_mshr_miss_rate::total            1                       # mshr miss rate for ReadCleanReq accesses
system.l2.ReadCleanReq_avg_mshr_miss_latency::.cpu.inst 77888.368715                       # average ReadCleanReq mshr miss latency
system.l2.ReadCleanReq_avg_mshr_miss_latency::total 77888.368715                       # average ReadCleanReq mshr miss latency
system.l2.ReadSharedReq_hits::.cpu.data         22852                       # number of ReadSharedReq hits
system.l2.ReadSharedReq_hits::total             22852                       # number of ReadSharedReq hits
system.l2.ReadSharedReq_misses::.cpu.data      4175135                       # number of ReadSharedReq misses
system.l2.ReadSharedReq_misses::total         4175135                       # number of ReadSharedReq misses
system.l2.ReadSharedReq_miss_latency::.cpu.data 362463775065                       # number of ReadSharedReq miss cycles
system.l2.ReadSharedReq_miss_latency::total 362463775065                       # number of ReadSharedReq miss cycles
system.l2.ReadSharedReq_accesses::.cpu.data      4197987                       # number of ReadSharedReq accesses(hits+misses)
system.l2.ReadSharedReq_accesses::total       4197987                       # number of ReadSharedReq accesses(hits+misses)
system.l2.ReadSharedReq_miss_rate::.cpu.data     0.994556                       # miss rate for ReadSharedReq accesses
system.l2.ReadSharedReq_miss_rate::total     0.994556                       # miss rate for ReadSharedReq accesses
system.l2.ReadSharedReq_avg_miss_latency::.cpu.data 86814.863487                       # average ReadSharedReq miss latency
system.l2.ReadSharedReq_avg_miss_latency::total 86814.863487                       # average ReadSharedReq miss latency
system.l2.ReadSharedReq_mshr_misses::.cpu.data      4175135                       # number of ReadSharedReq MSHR misses
system.l2.ReadSharedReq_mshr_misses::total      4175135                       # number of ReadSharedReq MSHR misses
system.l2.ReadSharedReq_mshr_miss_latency::.cpu.data 333962074264                       # number of ReadSharedReq MSHR miss cycles
system.l2.ReadSharedReq_mshr_miss_latency::total 333962074264                       # number of ReadSharedReq MSHR miss cycles
system.l2.ReadSharedReq_mshr_miss_rate::.cpu.data     0.994556                       # mshr miss rate for ReadSharedReq accesses
system.l2.ReadSharedReq_mshr_miss_rate::total     0.994556                       # mshr miss rate for ReadSharedReq accesses
system.l2.ReadSharedReq_avg_mshr_miss_latency::.cpu.data 79988.329542                       # average ReadSharedReq mshr miss latency
system.l2.ReadSharedReq_avg_mshr_miss_latency::total 79988.329542                       # average ReadSharedReq mshr miss latency
system.l2.tags.pwrStateResidencyTicks::UNDEFINED 881682474960                       # Cumulative time (in ticks) in various power states
system.l2.tags.tagsinuse                 253287.796899                       # Cycle average of tags in use
system.l2.tags.total_refs                     8399348                       # Total number of references to valid blocks.
system.l2.tags.sampled_refs                   4176339                       # Sample count of references to valid blocks.
system.l2.tags.avg_refs                      2.011175                       # Average number of references to valid blocks.
system.l2.tags.warmup_cycle                     76000                       # Cycle when the warmup percentage was hit.
system.l2.tags.occ_blocks::.writebacks       4.820949                       # Average occupied blocks per requestor
system.l2.tags.occ_blocks::.cpu.inst        67.576719                       # Average occupied blocks per requestor
system.l2.tags.occ_blocks::.cpu.data     253215.399231                       # Average occupied blocks per requestor
system.l2.tags.occ_percent::.writebacks      0.000018                       # Average percentage of cache occupancy
system.l2.tags.occ_percent::.cpu.inst        0.000258                       # Average percentage of cache occupancy
system.l2.tags.occ_percent::.cpu.data        0.965940                       # Average percentage of cache occupancy
system.l2.tags.occ_percent::total            0.966216                       # Average percentage of cache occupancy
system.l2.tags.occ_task_id_blocks::1024        262144                       # Occupied blocks per task id
system.l2.tags.age_task_id_blocks_1024::0          171                       # Occupied blocks per task id
system.l2.tags.age_task_id_blocks_1024::1          251                       # Occupied blocks per task id
system.l2.tags.age_task_id_blocks_1024::2         4325                       # Occupied blocks per task id
system.l2.tags.age_task_id_blocks_1024::3        39382                       # Occupied blocks per task id
system.l2.tags.age_task_id_blocks_1024::4       218015                       # Occupied blocks per task id
system.l2.tags.occ_task_id_percent::1024            1                       # Percentage of cache occupancy per task id
system.l2.tags.tag_accesses                 138567763                       # Number of tag accesses
system.l2.tags.data_accesses                138567763                       # Number of data accesses
system.l2.tags.repl_invalid                         0                       # Number of initial replacements
system.l2.tags.repl_valid_tag                       0                       # Number of local replacements
system.l2.tags.repl_valid_data                      0                       # Number of global replacements
system.cpu_voltage_domain.voltage                   1                       # Voltage in Volts
system.mem_ctrls.pwrStateResidencyTicks::UNDEFINED 881682474960                       # Cumulative time (in ticks) in various power states
system.mem_ctrls.bytes_read::.cpu.inst          45824                       # Number of bytes read from this memory
system.mem_ctrls.bytes_read::.cpu.data      267228672                       # Number of bytes read from this memory
system.mem_ctrls.bytes_read::total          267274496                       # Number of bytes read from this memory
system.mem_ctrls.bytes_inst_read::.cpu.inst        45824                       # Number of instructions bytes read from this memory
system.mem_ctrls.bytes_inst_read::total         45824                       # Number of instructions bytes read from this memory
system.mem_ctrls.bytes_written::.writebacks        20544                       # Number of bytes written to this memory
system.mem_ctrls.bytes_written::total           20544                       # Number of bytes written to this memory
system.mem_ctrls.num_reads::.cpu.inst             716                       # Number of read requests responded to by this memory
system.mem_ctrls.num_reads::.cpu.data         4175448                       # Number of read requests responded to by this memory
system.mem_ctrls.num_reads::total             4176164                       # Number of read requests responded to by this memory
system.mem_ctrls.num_writes::.writebacks          321                       # Number of write requests responded to by this memory
system.mem_ctrls.num_writes::total                321                       # Number of write requests responded to by this memory
system.mem_ctrls.bw_read::.cpu.inst             51973                       # Total read bandwidth from this memory (bytes/s)
system.mem_ctrls.bw_read::.cpu.data         303089468                       # Total read bandwidth from this memory (bytes/s)
system.mem_ctrls.bw_read::total             303141441                       # Total read bandwidth from this memory (bytes/s)
system.mem_ctrls.bw_inst_read::.cpu.inst        51973                       # Instruction read bandwidth from this memory (bytes/s)
system.mem_ctrls.bw_inst_read::total            51973                       # Instruction read bandwidth from this memory (bytes/s)
system.mem_ctrls.bw_write::.writebacks          23301                       # Write bandwidth from this memory (bytes/s)
system.mem_ctrls.bw_write::total                23301                       # Write bandwidth from this memory (bytes/s)
system.mem_ctrls.bw_total::.writebacks          23301                       # Total bandwidth to/from this memory (bytes/s)
system.mem_ctrls.bw_total::.cpu.inst            51973                       # Total bandwidth to/from this memory (bytes/s)
system.mem_ctrls.bw_total::.cpu.data        303089468                       # Total bandwidth to/from this memory (bytes/s)
system.mem_ctrls.bw_total::total            303164742                       # Total bandwidth to/from this memory (bytes/s)
system.mem_ctrls.avgPriority_.writebacks::samples       319.00                       # Average QoS priority value for accepted requests
system.mem_ctrls.avgPriority_.cpu.inst::samples       716.00                       # Average QoS priority value for accepted requests
system.mem_ctrls.avgPriority_.cpu.data::samples   4175412.00                       # Average QoS priority value for accepted requests
system.mem_ctrls.priorityMinLatency      0.000000031652                       # per QoS priority minimum request to response latency (s)
system.mem_ctrls.priorityMaxLatency      1.370469809366                       # per QoS priority maximum request to response latency (s)
system.mem_ctrls.numReadWriteTurnArounds           15                       # Number of turnarounds from READ to WRITE
system.mem_ctrls.numWriteReadTurnArounds           15                       # Number of turnarounds from WRITE to READ
system.mem_ctrls.numStayReadState             8579059                       # Number of times bus staying in READ state
system.mem_ctrls.numStayWriteState                255                       # Number of times bus staying in WRITE state
system.mem_ctrls.readReqs                     4176164                       # Number of read requests accepted
system.mem_ctrls.writeReqs                        321                       # Number of write requests accepted
system.mem_ctrls.readBursts                   4176164                       # Number of DRAM read bursts, including those serviced by the write queue
system.mem_ctrls.writeBursts                      321                       # Number of DRAM write bursts, including those merged in the write queue
system.mem_ctrls.servicedByWrQ                     36                       # Number of DRAM read bursts serviced by the write queue
system.mem_ctrls.mergedWrBursts                     2                       # Number of DRAM write bursts merged with an existing one
system.mem_ctrls.neitherReadNorWriteReqs            0                       # Number of requests that are neither read nor write
system.mem_ctrls.perBankRdBursts::0            130526                       # Per bank write bursts
system.mem_ctrls.perBankRdBursts::1            130462                       # Per bank write bursts
system.mem_ctrls.perBankRdBursts::2            130535                       # Per bank write bursts
system.mem_ctrls.perBankRdBursts::3            130482                       # Per bank write bursts
system.mem_ctrls.perBankRdBursts::4            130497                       # Per bank write bursts
system.mem_ctrls.perBankRdBursts::5            130480                       # Per bank write bursts
system.mem_ctrls.perBankRdBursts::6            130501                       # Per bank write bursts
system.mem_ctrls.perBankRdBursts::7            130502                       # Per bank write bursts
system.mem_ctrls.perBankRdBursts::8            130545                       # Per bank write bursts
system.mem_ctrls.perBankRdBursts::9            130508                       # Per bank write bursts
system.mem_ctrls.perBankRdBursts::10           130529                       # Per bank write bursts
system.mem_ctrls.perBankRdBursts::11           130476                       # Per bank write bursts
system.mem_ctrls.perBankRdBursts::12           130517                       # Per bank write bursts
system.mem_ctrls.perBankRdBursts::13           130585                       # Per bank write bursts
system.mem_ctrls.perBankRdBursts::14           130464                       # Per bank write bursts
system.mem_ctrls.perBankRdBursts::15           130541                       # Per bank write bursts
system.mem_ctrls.perBankRdBursts::16           130488                       # Per bank write bursts
system.mem_ctrls.perBankRdBursts::17           130494                       # Per bank write bursts
system.mem_ctrls.perBankRdBursts::18           130525                       # Per bank write bursts
system.mem_ctrls.perBankRdBursts::19           130522                       # Per bank write bursts
system.mem_ctrls.perBankRdBursts::20           130521                       # Per bank write bursts
system.mem_ctrls.perBankRdBursts::21           130515                       # Per bank write bursts
system.mem_ctrls.perBankRdBursts::22           130482                       # Per bank write bursts
system.mem_ctrls.perBankRdBursts::23           130510                       # Per bank write bursts
system.mem_ctrls.perBankRdBursts::24           130463                       # Per bank write bursts
system.mem_ctrls.perBankRdBursts::25           130454                       # Per bank write bursts
system.mem_ctrls.perBankRdBursts::26           130453                       # Per bank write bursts
system.mem_ctrls.perBankRdBursts::27           130520                       # Per bank write bursts
system.mem_ctrls.perBankRdBursts::28           130480                       # Per bank write bursts
system.mem_ctrls.perBankRdBursts::29           130562                       # Per bank write bursts
system.mem_ctrls.perBankRdBursts::30           130495                       # Per bank write bursts
system.mem_ctrls.perBankRdBursts::31           130494                       # Per bank write bursts
system.mem_ctrls.perBankWrBursts::0                11                       # Per bank write bursts
system.mem_ctrls.perBankWrBursts::1                11                       # Per bank write bursts
system.mem_ctrls.perBankWrBursts::2                10                       # Per bank write bursts
system.mem_ctrls.perBankWrBursts::3                 9                       # Per bank write bursts
system.mem_ctrls.perBankWrBursts::4                 9                       # Per bank write bursts
system.mem_ctrls.perBankWrBursts::5                 9                       # Per bank write bursts
system.mem_ctrls.perBankWrBursts::6                 8                       # Per bank write bursts
system.mem_ctrls.perBankWrBursts::7                 9                       # Per bank write bursts
system.mem_ctrls.perBankWrBursts::8                 8                       # Per bank write bursts
system.mem_ctrls.perBankWrBursts::9                10                       # Per bank write bursts
system.mem_ctrls.perBankWrBursts::10               11                       # Per bank write bursts
system.mem_ctrls.perBankWrBursts::11                8                       # Per bank write bursts
system.mem_ctrls.perBankWrBursts::12               10                       # Per bank write bursts
system.mem_ctrls.perBankWrBursts::13                8                       # Per bank write bursts
system.mem_ctrls.perBankWrBursts::14                9                       # Per bank write bursts
system.mem_ctrls.perBankWrBursts::15                8                       # Per bank write bursts
system.mem_ctrls.perBankWrBursts::16               10                       # Per bank write bursts
system.mem_ctrls.perBankWrBursts::17                9                       # Per bank write bursts
system.mem_ctrls.perBankWrBursts::18                7                       # Per bank write bursts
system.mem_ctrls.perBankWrBursts::19                9                       # Per bank write bursts
system.mem_ctrls.perBankWrBursts::20                8                       # Per bank write bursts
system.mem_ctrls.perBankWrBursts::21                6                       # Per bank write bursts
system.mem_ctrls.perBankWrBursts::22                6                       # Per bank write bursts
system.mem_ctrls.perBankWrBursts::23                7                       # Per bank write bursts
system.mem_ctrls.perBankWrBursts::24                8                       # Per bank write bursts
system.mem_ctrls.perBankWrBursts::25                7                       # Per bank write bursts
system.mem_ctrls.perBankWrBursts::26                7                       # Per bank write bursts
system.mem_ctrls.perBankWrBursts::27                8                       # Per bank write bursts
system.mem_ctrls.perBankWrBursts::28                6                       # Per bank write bursts
system.mem_ctrls.perBankWrBursts::29                8                       # Per bank write bursts
system.mem_ctrls.perBankWrBursts::30                8                       # Per bank write bursts
system.mem_ctrls.perBankWrBursts::31                8                       # Per bank write bursts
system.mem_ctrls.avgRdQLen                       1.00                       # Average read queue length when enqueuing
system.mem_ctrls.avgWrQLen                      54.47                       # Average write queue length when enqueuing
system.mem_ctrls.totQLat                  92839136339                       # Total ticks spent queuing
system.mem_ctrls.totBusLat                13914858496                       # Total ticks spent in databus transfers
system.mem_ctrls.totMemAccLat            165887967315                       # Total ticks spent from burst creation until serviced by the DRAM
system.mem_ctrls.avgQLat                     22230.91                       # Average queueing delay per DRAM burst
system.mem_ctrls.avgBusLat                    3332.00                       # Average bus latency per DRAM burst
system.mem_ctrls.avgMemAccLat                39722.91                       # Average memory access latency per DRAM burst
system.mem_ctrls.numRdRetry                         0                       # Number of times read queue was full causing retry
system.mem_ctrls.numWrRetry                         0                       # Number of times write queue was full causing retry
system.mem_ctrls.readRowHits                        0                       # Number of row buffer hits during reads
system.mem_ctrls.writeRowHits                       0                       # Number of row buffer hits during writes
system.mem_ctrls.readRowHitRate                  0.00                       # Row buffer hit rate for reads
system.mem_ctrls.writeRowHitRate                 0.00                       # Row buffer hit rate for writes
system.mem_ctrls.readPktSize::0                     0                       # Read request sizes (log2)
system.mem_ctrls.readPktSize::1                     0                       # Read request sizes (log2)
system.mem_ctrls.readPktSize::2                     0                       # Read request sizes (log2)
system.mem_ctrls.readPktSize::3                     0                       # Read request sizes (log2)
system.mem_ctrls.readPktSize::4                     0                       # Read request sizes (log2)
system.mem_ctrls.readPktSize::5                     0                       # Read request sizes (log2)
system.mem_ctrls.readPktSize::6               4176164                       # Read request sizes (log2)
system.mem_ctrls.writePktSize::0                    0                       # Write request sizes (log2)
system.mem_ctrls.writePktSize::1                    0                       # Write request sizes (log2)
system.mem_ctrls.writePktSize::2                    0                       # Write request sizes (log2)
system.mem_ctrls.writePktSize::3                    0                       # Write request sizes (log2)
system.mem_ctrls.writePktSize::4                    0                       # Write request sizes (log2)
system.mem_ctrls.writePktSize::5                    0                       # Write request sizes (log2)
system.mem_ctrls.writePktSize::6                  321                       # Write request sizes (log2)
system.mem_ctrls.rdQLenPdf::0                 4176127                       # What read queue length does an incoming req see
system.mem_ctrls.rdQLenPdf::1                       1                       # What read queue length does an incoming req see
system.mem_ctrls.rdQLenPdf::2                       0                       # What read queue length does an incoming req see
system.mem_ctrls.rdQLenPdf::3                       0                       # What read queue length does an incoming req see
system.mem_ctrls.rdQLenPdf::4                       0                       # What read queue length does an incoming req see
system.mem_ctrls.rdQLenPdf::5                       0                       # What read queue length does an incoming req see
system.mem_ctrls.rdQLenPdf::6                       0                       # What read queue length does an incoming req see
system.mem_ctrls.rdQLenPdf::7                       0                       # What read queue length does an incoming req see
system.mem_ctrls.rdQLenPdf::8                       0                       # What read queue length does an incoming req see
system.mem_ctrls.rdQLenPdf::9                       0                       # What read queue length does an incoming req see
system.mem_ctrls.rdQLenPdf::10                      0                       # What read queue length does an incoming req see
system.mem_ctrls.rdQLenPdf::11                      0                       # What read queue length does an incoming req see
system.mem_ctrls.rdQLenPdf::12                      0                       # What read queue length does an incoming req see
system.mem_ctrls.rdQLenPdf::13                      0                       # What read queue length does an incoming req see
system.mem_ctrls.rdQLenPdf::14                      0                       # What read queue length does an incoming req see
system.mem_ctrls.rdQLenPdf::15                      0                       # What read queue length does an incoming req see
system.mem_ctrls.rdQLenPdf::16                      0                       # What read queue length does an incoming req see
system.mem_ctrls.rdQLenPdf::17                      0                       # What read queue length does an incoming req see
system.mem_ctrls.rdQLenPdf::18                      0                       # What read queue length does an incoming req see
system.mem_ctrls.rdQLenPdf::19                      0                       # What read queue length does an incoming req see
system.mem_ctrls.rdQLenPdf::20                      0                       # What read queue length does an incoming req see
system.mem_ctrls.rdQLenPdf::21                      0                       # What read queue length does an incoming req see
system.mem_ctrls.rdQLenPdf::22                      0                       # What read queue length does an incoming req see
system.mem_ctrls.rdQLenPdf::23                      0                       # What read queue length does an incoming req see
system.mem_ctrls.rdQLenPdf::24                      0                       # What read queue length does an incoming req see
system.mem_ctrls.rdQLenPdf::25                      0                       # What read queue length does an incoming req see
system.mem_ctrls.rdQLenPdf::26                      0                       # What read queue length does an incoming req see
system.mem_ctrls.rdQLenPdf::27                      0                       # What read queue length does an incoming req see
system.mem_ctrls.rdQLenPdf::28                      0                       # What read queue length does an incoming req see
system.mem_ctrls.rdQLenPdf::29                      0                       # What read queue length does an incoming req see
system.mem_ctrls.rdQLenPdf::30                      0                       # What read queue length does an incoming req see
system.mem_ctrls.rdQLenPdf::31                      0                       # What read queue length does an incoming req see
system.mem_ctrls.rdQLenPdf::32                      0                       # What read queue length does an incoming req see
system.mem_ctrls.rdQLenPdf::33                      0                       # What read queue length does an incoming req see
system.mem_ctrls.rdQLenPdf::34                      0                       # What read queue length does an incoming req see
system.mem_ctrls.rdQLenPdf::35                      0                       # What read queue length does an incoming req see
system.mem_ctrls.rdQLenPdf::36                      0                       # What read queue length does an incoming req see
system.mem_ctrls.rdQLenPdf::37                      0                       # What read queue length does an incoming req see
system.mem_ctrls.rdQLenPdf::38                      0                       # What read queue length does an incoming req see
system.mem_ctrls.rdQLenPdf::39                      0                       # What read queue length does an incoming req see
system.mem_ctrls.rdQLenPdf::40                      0                       # What read queue length does an incoming req see
system.mem_ctrls.rdQLenPdf::41                      0                       # What read queue length does an incoming req see
system.mem_ctrls.rdQLenPdf::42                      0                       # What read queue length does an incoming req see
system.mem_ctrls.rdQLenPdf::43                      0                       # What read queue length does an incoming req see
system.mem_ctrls.rdQLenPdf::44                      0                       # What read queue length does an incoming req see
system.mem_ctrls.rdQLenPdf::45                      0                       # What read queue length does an incoming req see
system.mem_ctrls.rdQLenPdf::46                      0                       # What read queue length does an incoming req see
system.mem_ctrls.rdQLenPdf::47                      0                       # What read queue length does an incoming req see
system.mem_ctrls.rdQLenPdf::48                      0                       # What read queue length does an incoming req see
system.mem_ctrls.rdQLenPdf::49                      0                       # What read queue length does an incoming req see
system.mem_ctrls.rdQLenPdf::50                      0                       # What read queue length does an incoming req see
system.mem_ctrls.rdQLenPdf::51                      0                       # What read queue length does an incoming req see
system.mem_ctrls.rdQLenPdf::52                      0                       # What read queue length does an incoming req see
system.mem_ctrls.rdQLenPdf::53                      0                       # What read queue length does an incoming req see
system.mem_ctrls.rdQLenPdf::54                      0                       # What read queue length does an incoming req see
system.mem_ctrls.rdQLenPdf::55                      0                       # What read queue length does an incoming req see
system.mem_ctrls.rdQLenPdf::56                      0                       # What read queue length does an incoming req see
system.mem_ctrls.rdQLenPdf::57                      0                       # What read queue length does an incoming req see
system.mem_ctrls.rdQLenPdf::58                      0                       # What read queue length does an incoming req see
system.mem_ctrls.rdQLenPdf::59                      0                       # What read queue length does an incoming req see
system.mem_ctrls.rdQLenPdf::60                      0                       # What read queue length does an incoming req see
system.mem_ctrls.rdQLenPdf::61                      0                       # What read queue length does an incoming req see
system.mem_ctrls.rdQLenPdf::62                      0                       # What read queue length does an incoming req see
system.mem_ctrls.rdQLenPdf::63                      0                       # What read queue length does an incoming req see
system.mem_ctrls.wrQLenPdf::0                       1                       # What write queue length does an incoming req see
system.mem_ctrls.wrQLenPdf::1                       1                       # What write queue length does an incoming req see
system.mem_ctrls.wrQLenPdf::2                       1                       # What write queue length does an incoming req see
system.mem_ctrls.wrQLenPdf::3                       1                       # What write queue length does an incoming req see
system.mem_ctrls.wrQLenPdf::4                       1                       # What write queue length does an incoming req see
system.mem_ctrls.wrQLenPdf::5                       1                       # What write queue length does an incoming req see
system.mem_ctrls.wrQLenPdf::6                       1                       # What write queue length does an incoming req see
system.mem_ctrls.wrQLenPdf::7                       1                       # What write queue length does an incoming req see
system.mem_ctrls.wrQLenPdf::8                       1                       # What write queue length does an incoming req see
system.mem_ctrls.wrQLenPdf::9                       1                       # What write queue length does an incoming req see
system.mem_ctrls.wrQLenPdf::10                      1                       # What write queue length does an incoming req see
system.mem_ctrls.wrQLenPdf::11                      1                       # What write queue length does an incoming req see
system.mem_ctrls.wrQLenPdf::12                      1                       # What write queue length does an incoming req see
system.mem_ctrls.wrQLenPdf::13                      1                       # What write queue length does an incoming req see
system.mem_ctrls.wrQLenPdf::14                      1                       # What write queue length does an incoming req see
system.mem_ctrls.wrQLenPdf::15                      1                       # What write queue length does an incoming req see
system.mem_ctrls.wrQLenPdf::16                      1                       # What write queue length does an incoming req see
system.mem_ctrls.wrQLenPdf::17                      1                       # What write queue length does an incoming req see
system.mem_ctrls.wrQLenPdf::18                      1                       # What write queue length does an incoming req see
system.mem_ctrls.wrQLenPdf::19                      1                       # What write queue length does an incoming req see
system.mem_ctrls.wrQLenPdf::20                      1                       # What write queue length does an incoming req see
system.mem_ctrls.wrQLenPdf::21                      1                       # What write queue length does an incoming req see
system.mem_ctrls.wrQLenPdf::22                      1                       # What write queue length does an incoming req see
system.mem_ctrls.wrQLenPdf::23                      1                       # What write queue length does an incoming req see
system.mem_ctrls.wrQLenPdf::24                      1                       # What write queue length does an incoming req see
system.mem_ctrls.wrQLenPdf::25                      1                       # What write queue length does an incoming req see
system.mem_ctrls.wrQLenPdf::26                      1                       # What write queue length does an incoming req see
system.mem_ctrls.wrQLenPdf::27                      1                       # What write queue length does an incoming req see
system.mem_ctrls.wrQLenPdf::28                      1                       # What write queue length does an incoming req see
system.mem_ctrls.wrQLenPdf::29                      1                       # What write queue length does an incoming req see
system.mem_ctrls.wrQLenPdf::30                      1                       # What write queue length does an incoming req see
system.mem_ctrls.wrQLenPdf::31                      1                       # What write queue length does an incoming req see
system.mem_ctrls.wrQLenPdf::32                      1                       # What write queue length does an incoming req see
system.mem_ctrls.wrQLenPdf::33                      1                       # What write queue length does an incoming req see
system.mem_ctrls.wrQLenPdf::34                      1                       # What write queue length does an incoming req see
system.mem_ctrls.wrQLenPdf::35                      1                       # What write queue length does an incoming req see
system.mem_ctrls.wrQLenPdf::36                      1                       # What write queue length does an incoming req see
system.mem_ctrls.wrQLenPdf::37                      1                       # What write queue length does an incoming req see
system.mem_ctrls.wrQLenPdf::38                      1                       # What write queue length does an incoming req see
system.mem_ctrls.wrQLenPdf::39                      1                       # What write queue length does an incoming req see
system.mem_ctrls.wrQLenPdf::40                      1                       # What write queue length does an incoming req see
system.mem_ctrls.wrQLenPdf::41                      1                       # What write queue length does an incoming req see
system.mem_ctrls.wrQLenPdf::42                      1                       # What write queue length does an incoming req see
system.mem_ctrls.wrQLenPdf::43                      1                       # What write queue length does an incoming req see
system.mem_ctrls.wrQLenPdf::44                      1                       # What write queue length does an incoming req see
system.mem_ctrls.wrQLenPdf::45                      1                       # What write queue length does an incoming req see
system.mem_ctrls.wrQLenPdf::46                      1                       # What write queue length does an incoming req see
system.mem_ctrls.wrQLenPdf::47                     16                       # What write queue length does an incoming req see
system.mem_ctrls.wrQLenPdf::48                     16                       # What write queue length does an incoming req see
system.mem_ctrls.wrQLenPdf::49                     15                       # What write queue length does an incoming req see
system.mem_ctrls.wrQLenPdf::50                     15                       # What write queue length does an incoming req see
system.mem_ctrls.wrQLenPdf::51                     15                       # What write queue length does an incoming req see
system.mem_ctrls.wrQLenPdf::52                     15                       # What write queue length does an incoming req see
system.mem_ctrls.wrQLenPdf::53                     15                       # What write queue length does an incoming req see
system.mem_ctrls.wrQLenPdf::54                     15                       # What write queue length does an incoming req see
system.mem_ctrls.wrQLenPdf::55                     15                       # What write queue length does an incoming req see
system.mem_ctrls.wrQLenPdf::56                     15                       # What write queue length does an incoming req see
system.mem_ctrls.wrQLenPdf::57                     15                       # What write queue length does an incoming req see
system.mem_ctrls.wrQLenPdf::58                     15                       # What write queue length does an incoming req see
system.mem_ctrls.wrQLenPdf::59                     15                       # What write queue length does an incoming req see
system.mem_ctrls.wrQLenPdf::60                     15                       # What write queue length does an incoming req see
system.mem_ctrls.wrQLenPdf::61                     15                       # What write queue length does an incoming req see
system.mem_ctrls.wrQLenPdf::62                     15                       # What write queue length does an incoming req see
system.mem_ctrls.wrQLenPdf::63                     15                       # What write queue length does an incoming req see
system.mem_ctrls.wrQLenPdf::64                     15                       # What write queue length does an incoming req see
system.mem_ctrls.wrQLenPdf::65                      0                       # What write queue length does an incoming req see
system.mem_ctrls.wrQLenPdf::66                      0                       # What write queue length does an incoming req see
system.mem_ctrls.wrQLenPdf::67                      0                       # What write queue length does an incoming req see
system.mem_ctrls.wrQLenPdf::68                      0                       # What write queue length does an incoming req see
system.mem_ctrls.wrQLenPdf::69                      0                       # What write queue length does an incoming req see
system.mem_ctrls.wrQLenPdf::70                      0                       # What write queue length does an incoming req see
system.mem_ctrls.wrQLenPdf::71                      0                       # What write queue length does an incoming req see
system.mem_ctrls.wrQLenPdf::72                      0                       # What write queue length does an incoming req see
system.mem_ctrls.wrQLenPdf::73                      0                       # What write queue length does an incoming req see
system.mem_ctrls.wrQLenPdf::74                      0                       # What write queue length does an incoming req see
system.mem_ctrls.wrQLenPdf::75                      0                       # What write queue length does an incoming req see
system.mem_ctrls.wrQLenPdf::76                      0                       # What write queue length does an incoming req see
system.mem_ctrls.wrQLenPdf::77                      0                       # What write queue length does an incoming req see
system.mem_ctrls.wrQLenPdf::78                      0                       # What write queue length does an incoming req see
system.mem_ctrls.wrQLenPdf::79                      0                       # What write queue length does an incoming req see
system.mem_ctrls.wrQLenPdf::80                      0                       # What write queue length does an incoming req see
system.mem_ctrls.wrQLenPdf::81                      0                       # What write queue length does an incoming req see
system.mem_ctrls.wrQLenPdf::82                      0                       # What write queue length does an incoming req see
system.mem_ctrls.wrQLenPdf::83                      0                       # What write queue length does an incoming req see
system.mem_ctrls.wrQLenPdf::84                      0                       # What write queue length does an incoming req see
system.mem_ctrls.wrQLenPdf::85                      0                       # What write queue length does an incoming req see
system.mem_ctrls.wrQLenPdf::86                      0                       # What write queue length does an incoming req see
system.mem_ctrls.wrQLenPdf::87                      0                       # What write queue length does an incoming req see
system.mem_ctrls.wrQLenPdf::88                      0                       # What write queue length does an incoming req see
system.mem_ctrls.wrQLenPdf::89                      0                       # What write queue length does an incoming req see
system.mem_ctrls.wrQLenPdf::90                      0                       # What write queue length does an incoming req see
system.mem_ctrls.wrQLenPdf::91                      0                       # What write queue length does an incoming req see
system.mem_ctrls.wrQLenPdf::92                      0                       # What write queue length does an incoming req see
system.mem_ctrls.wrQLenPdf::93                      0                       # What write queue length does an incoming req see
system.mem_ctrls.wrQLenPdf::94                      0                       # What write queue length does an incoming req see
system.mem_ctrls.wrQLenPdf::95                      0                       # What write queue length does an incoming req see
system.mem_ctrls.wrQLenPdf::96                      0                       # What write queue length does an incoming req see
system.mem_ctrls.wrQLenPdf::97                      0                       # What write queue length does an incoming req see
system.mem_ctrls.wrQLenPdf::98                      0                       # What write queue length does an incoming req see
system.mem_ctrls.wrQLenPdf::99                      0                       # What write queue length does an incoming req see
system.mem_ctrls.wrQLenPdf::100                     0                       # What write queue length does an incoming req see
system.mem_ctrls.wrQLenPdf::101                     0                       # What write queue length does an incoming req see
system.mem_ctrls.wrQLenPdf::102                     0                       # What write queue length does an incoming req see
system.mem_ctrls.wrQLenPdf::103                     0                       # What write queue length does an incoming req see
system.mem_ctrls.wrQLenPdf::104                     0                       # What write queue length does an incoming req see
system.mem_ctrls.wrQLenPdf::105                     0                       # What write queue length does an incoming req see
system.mem_ctrls.wrQLenPdf::106                     0                       # What write queue length does an incoming req see
system.mem_ctrls.wrQLenPdf::107                     0                       # What write queue length does an incoming req see
system.mem_ctrls.wrQLenPdf::108                     0                       # What write queue length does an incoming req see
system.mem_ctrls.wrQLenPdf::109                     0                       # What write queue length does an incoming req see
system.mem_ctrls.wrQLenPdf::110                     0                       # What write queue length does an incoming req see
system.mem_ctrls.wrQLenPdf::111                     0                       # What write queue length does an incoming req see
system.mem_ctrls.wrQLenPdf::112                     0                       # What write queue length does an incoming req see
system.mem_ctrls.wrQLenPdf::113                     0                       # What write queue length does an incoming req see
system.mem_ctrls.wrQLenPdf::114                     0                       # What write queue length does an incoming req see
system.mem_ctrls.wrQLenPdf::115                     0                       # What write queue length does an incoming req see
system.mem_ctrls.wrQLenPdf::116                     0                       # What write queue length does an incoming req see
system.mem_ctrls.wrQLenPdf::117                     0                       # What write queue length does an incoming req see
system.mem_ctrls.wrQLenPdf::118                     0                       # What write queue length does an incoming req see
system.mem_ctrls.wrQLenPdf::119                     0                       # What write queue length does an incoming req see
system.mem_ctrls.wrQLenPdf::120                     0                       # What write queue length does an incoming req see
system.mem_ctrls.wrQLenPdf::121                     0                       # What write queue length does an incoming req see
system.mem_ctrls.wrQLenPdf::122                     0                       # What write queue length does an incoming req see
system.mem_ctrls.wrQLenPdf::123                     0                       # What write queue length does an incoming req see
system.mem_ctrls.wrQLenPdf::124                     0                       # What write queue length does an incoming req see
system.mem_ctrls.wrQLenPdf::125                     0                       # What write queue length does an incoming req see
system.mem_ctrls.wrQLenPdf::126                     0                       # What write queue length does an incoming req see
system.mem_ctrls.wrQLenPdf::127                     0                       # What write queue length does an incoming req see
system.mem_ctrls.bytesPerActivate::samples      4176398                       # Bytes accessed per row activation
system.mem_ctrls.bytesPerActivate::mean            64                       # Bytes accessed per row activation
system.mem_ctrls.bytesPerActivate::gmean    64.000000                       # Bytes accessed per row activation
system.mem_ctrls.bytesPerActivate::64-71      4176398    100.00%    100.00% # Bytes accessed per row activation
system.mem_ctrls.bytesPerActivate::total      4176398                       # Bytes accessed per row activation
system.mem_ctrls.rdPerTurnAround::samples           15                       # Reads before turning the bus around for writes
system.mem_ctrls.rdPerTurnAround::mean   262915.533333                       # Reads before turning the bus around for writes
system.mem_ctrls.rdPerTurnAround::gmean  89158.667594                       # Reads before turning the bus around for writes
system.mem_ctrls.rdPerTurnAround::stdev  528460.178234                       # Reads before turning the bus around for writes
system.mem_ctrls.rdPerTurnAround::0-32767            3     20.00%     20.00% # Reads before turning the bus around for writes
[...]
system.cpu.icache.tags.pwrStateResidencyTicks::UNDEFINED 881682474960                       # Cumulative time (in ticks) in various power states
system.cpu.icache.tags.tagsinuse           447.205240                       # Cycle average of tags in use
system.cpu.icache.tags.total_refs           571169630                       # Total number of references to valid blocks.
system.cpu.icache.tags.sampled_refs               716                       # Sample count of references to valid blocks.
system.cpu.icache.tags.avg_refs          797722.946927                       # Average number of references to valid blocks.
system.cpu.icache.tags.warmup_cycle             83250                       # Cycle when the warmup percentage was hit.
system.cpu.icache.tags.occ_blocks::.cpu.inst   447.205240                       # Average occupied blocks per requestor
system.cpu.icache.tags.occ_percent::.cpu.inst     0.873448                       # Average percentage of cache occupancy
system.cpu.icache.tags.occ_percent::total     0.873448                       # Average percentage of cache occupancy
system.cpu.icache.tags.occ_task_id_blocks::1024          504                       # Occupied blocks per task id
system.cpu.icache.tags.age_task_id_blocks_1024::0           75                       # Occupied blocks per task id
system.cpu.icache.tags.age_task_id_blocks_1024::1           24                       # Occupied blocks per task id
system.cpu.icache.tags.age_task_id_blocks_1024::4          405                       # Occupied blocks per task id
system.cpu.icache.tags.occ_task_id_percent::1024     0.984375                       # Percentage of cache occupancy per task id
system.cpu.icache.tags.tag_accesses        4569357756                       # Number of tag accesses
system.cpu.icache.tags.data_accesses       4569357756                       # Number of data accesses
system.cpu.icache.tags.repl_invalid                 0                       # Number of initial replacements
system.cpu.icache.tags.repl_valid_tag               0                       # Number of local replacements
system.cpu.icache.tags.repl_valid_data              0                       # Number of global replacements
system.cpu.dtb.walker.pwrStateResidencyTicks::UNDEFINED 881682474960                       # Cumulative time (in ticks) in various power states
system.cpu.interrupts.clk_domain.clock           5328                       # Clock period in ticks
system.cpu.itb_walker_cache.pwrStateResidencyTicks::UNDEFINED 881682474960                       # Cumulative time (in ticks) in various power states
system.cpu.itb_walker_cache.blocked_cycles::no_mshrs            0                       # number of cycles access was blocked
system.cpu.itb_walker_cache.blocked_cycles::no_targets            0                       # number of cycles access was blocked
system.cpu.itb_walker_cache.blocked::no_mshrs            0                       # number of cycles access was blocked
system.cpu.itb_walker_cache.blocked::no_targets            0                       # number of cycles access was blocked
system.cpu.itb_walker_cache.avg_blocked_cycles::no_mshrs          nan                       # average number of cycles each access was blocked
system.cpu.itb_walker_cache.avg_blocked_cycles::no_targets          nan                       # average number of cycles each access was blocked
system.cpu.itb_walker_cache.replacements            0                       # number of replacements
system.cpu.itb_walker_cache.tags.pwrStateResidencyTicks::UNDEFINED 881682474960                       # Cumulative time (in ticks) in various power states
system.cpu.itb_walker_cache.tags.tagsinuse            0                       # Cycle average of tags in use
system.cpu.itb_walker_cache.tags.total_refs            0                       # Total number of references to valid blocks.
system.cpu.itb_walker_cache.tags.sampled_refs            0                       # Sample count of references to valid blocks.
system.cpu.itb_walker_cache.tags.avg_refs          nan                       # Average number of references to valid blocks.
system.cpu.itb_walker_cache.tags.warmup_cycle            0                       # Cycle when the warmup percentage was hit.
system.cpu.itb_walker_cache.tags.tag_accesses            0                       # Number of tag accesses
system.cpu.itb_walker_cache.tags.data_accesses            0                       # Number of data accesses
system.cpu.itb_walker_cache.tags.repl_invalid            0                       # Number of initial replacements
system.cpu.itb_walker_cache.tags.repl_valid_tag            0                       # Number of local replacements
system.cpu.itb_walker_cache.tags.repl_valid_data            0                       # Number of global replacements
system.cpu.itb.walker.pwrStateResidencyTicks::UNDEFINED 881682474960                       # Cumulative time (in ticks) in various power states
system.cpu.dtb_walker_cache.pwrStateResidencyTicks::UNDEFINED 881682474960                       # Cumulative time (in ticks) in various power states
system.cpu.dtb_walker_cache.blocked_cycles::no_mshrs            0                       # number of cycles access was blocked
system.cpu.dtb_walker_cache.blocked_cycles::no_targets            0                       # number of cycles access was blocked
system.cpu.dtb_walker_cache.blocked::no_mshrs            0                       # number of cycles access was blocked
system.cpu.dtb_walker_cache.blocked::no_targets            0                       # number of cycles access was blocked
system.cpu.dtb_walker_cache.avg_blocked_cycles::no_mshrs          nan                       # average number of cycles each access was blocked
system.cpu.dtb_walker_cache.avg_blocked_cycles::no_targets          nan                       # average number of cycles each access was blocked
system.cpu.dtb_walker_cache.replacements            0                       # number of replacements
system.cpu.dtb_walker_cache.tags.pwrStateResidencyTicks::UNDEFINED 881682474960                       # Cumulative time (in ticks) in various power states
system.cpu.dtb_walker_cache.tags.tagsinuse            0                       # Cycle average of tags in use
system.cpu.dtb_walker_cache.tags.total_refs            0                       # Total number of references to valid blocks.
system.cpu.dtb_walker_cache.tags.sampled_refs            0                       # Sample count of references to valid blocks.
system.cpu.dtb_walker_cache.tags.avg_refs          nan                       # Average number of references to valid blocks.
system.cpu.dtb_walker_cache.tags.warmup_cycle            0                       # Cycle when the warmup percentage was hit.
system.cpu.dtb_walker_cache.tags.tag_accesses            0                       # Number of tag accesses
system.cpu.dtb_walker_cache.tags.data_accesses            0                       # Number of data accesses
system.cpu.dtb_walker_cache.tags.repl_invalid            0                       # Number of initial replacements
system.cpu.dtb_walker_cache.tags.repl_valid_tag            0                       # Number of local replacements
system.cpu.dtb_walker_cache.tags.repl_valid_data            0                       # Number of global replacements
system.cpu.dcache.pwrStateResidencyTicks::UNDEFINED 881682474960                       # Cumulative time (in ticks) in various power states
system.cpu.dcache.demand_hits::.cpu.data    197474118                       # number of demand (read+write) hits
system.cpu.dcache.demand_hits::total        197474118                       # number of demand (read+write) hits
system.cpu.dcache.overall_hits::.cpu.data    197474118                       # number of overall hits
system.cpu.dcache.overall_hits::total       197474118                       # number of overall hits
system.cpu.dcache.demand_misses::.cpu.data      4199272                       # number of demand (read+write) misses
system.cpu.dcache.demand_misses::total        4199272                       # number of demand (read+write) misses
system.cpu.dcache.overall_misses::.cpu.data      4199272                       # number of overall misses
system.cpu.dcache.overall_misses::total       4199272                       # number of overall misses
system.cpu.dcache.demand_miss_latency::.cpu.data 369704641617                       # number of demand (read+write) miss cycles
system.cpu.dcache.demand_miss_latency::total 369704641617                       # number of demand (read+write) miss cycles
system.cpu.dcache.overall_miss_latency::.cpu.data 369704641617                       # number of overall miss cycles
system.cpu.dcache.overall_miss_latency::total 369704641617                       # number of overall miss cycles
system.cpu.dcache.demand_accesses::.cpu.data    201673390                       # number of demand (read+write) accesses
system.cpu.dcache.demand_accesses::total    201673390                       # number of demand (read+write) accesses
system.cpu.dcache.overall_accesses::.cpu.data    201673390                       # number of overall (read+write) accesses
system.cpu.dcache.overall_accesses::total    201673390                       # number of overall (read+write) accesses
system.cpu.dcache.demand_miss_rate::.cpu.data     0.020822                       # miss rate for demand accesses
system.cpu.dcache.demand_miss_rate::total     0.020822                       # miss rate for demand accesses
system.cpu.dcache.overall_miss_rate::.cpu.data     0.020822                       # miss rate for overall accesses
system.cpu.dcache.overall_miss_rate::total     0.020822                       # miss rate for overall accesses
system.cpu.dcache.demand_avg_miss_latency::.cpu.data 88040.174968                       # average overall miss latency
system.cpu.dcache.demand_avg_miss_latency::total 88040.174968                       # average overall miss latency
system.cpu.dcache.overall_avg_miss_latency::.cpu.data 88040.174968                       # average overall miss latency
system.cpu.dcache.overall_avg_miss_latency::total 88040.174968                       # average overall miss latency
system.cpu.dcache.blocked_cycles::no_mshrs            0                       # number of cycles access was blocked
system.cpu.dcache.blocked_cycles::no_targets            0                       # number of cycles access was blocked
system.cpu.dcache.blocked::no_mshrs                 0                       # number of cycles access was blocked
system.cpu.dcache.blocked::no_targets               0                       # number of cycles access was blocked
system.cpu.dcache.avg_blocked_cycles::no_mshrs          nan                       # average number of cycles each access was blocked
system.cpu.dcache.avg_blocked_cycles::no_targets          nan                       # average number of cycles each access was blocked
system.cpu.dcache.writebacks::.writebacks         2830                       # number of writebacks
system.cpu.dcache.writebacks::total              2830                       # number of writebacks
system.cpu.dcache.demand_mshr_misses::.cpu.data      4199272                       # number of demand (read+write) MSHR misses
system.cpu.dcache.demand_mshr_misses::total      4199272                       # number of demand (read+write) MSHR misses
system.cpu.dcache.overall_mshr_misses::.cpu.data      4199272                       # number of overall MSHR misses
system.cpu.dcache.overall_mshr_misses::total      4199272                       # number of overall MSHR misses
system.cpu.dcache.demand_mshr_miss_latency::.cpu.data 366907926465                       # number of demand (read+write) MSHR miss cycles
system.cpu.dcache.demand_mshr_miss_latency::total 366907926465                       # number of demand (read+write) MSHR miss cycles
system.cpu.dcache.overall_mshr_miss_latency::.cpu.data 366907926465                       # number of overall MSHR miss cycles
system.cpu.dcache.overall_mshr_miss_latency::total 366907926465                       # number of overall MSHR miss cycles
system.cpu.dcache.demand_mshr_miss_rate::.cpu.data     0.020822                       # mshr miss rate for demand accesses
system.cpu.dcache.demand_mshr_miss_rate::total     0.020822                       # mshr miss rate for demand accesses
system.cpu.dcache.overall_mshr_miss_rate::.cpu.data     0.020822                       # mshr miss rate for overall accesses
system.cpu.dcache.overall_mshr_miss_rate::total     0.020822                       # mshr miss rate for overall accesses
system.cpu.dcache.demand_avg_mshr_miss_latency::.cpu.data 87374.174968                       # average overall mshr miss latency
system.cpu.dcache.demand_avg_mshr_miss_latency::total 87374.174968                       # average overall mshr miss latency
system.cpu.dcache.overall_avg_mshr_miss_latency::.cpu.data 87374.174968                       # average overall mshr miss latency
system.cpu.dcache.overall_avg_mshr_miss_latency::total 87374.174968                       # average overall mshr miss latency
system.cpu.dcache.replacements                4199264                       # number of replacements
system.cpu.dcache.ReadReq_hits::.cpu.data    130232654                       # number of ReadReq hits
system.cpu.dcache.ReadReq_hits::total       130232654                       # number of ReadReq hits
system.cpu.dcache.ReadReq_misses::.cpu.data      4197987                       # number of ReadReq misses
system.cpu.dcache.ReadReq_misses::total       4197987                       # number of ReadReq misses
system.cpu.dcache.ReadReq_miss_latency::.cpu.data 369667188774                       # number of ReadReq miss cycles
system.cpu.dcache.ReadReq_miss_latency::total 369667188774                       # number of ReadReq miss cycles
system.cpu.dcache.ReadReq_accesses::.cpu.data    134430641                       # number of ReadReq accesses(hits+misses)
system.cpu.dcache.ReadReq_accesses::total    134430641                       # number of ReadReq accesses(hits+misses)
system.cpu.dcache.ReadReq_miss_rate::.cpu.data     0.031228                       # miss rate for ReadReq accesses
system.cpu.dcache.ReadReq_miss_rate::total     0.031228                       # miss rate for ReadReq accesses
system.cpu.dcache.ReadReq_avg_miss_latency::.cpu.data 88058.202366                       # average ReadReq miss latency
system.cpu.dcache.ReadReq_avg_miss_latency::total 88058.202366                       # average ReadReq miss latency
system.cpu.dcache.ReadReq_mshr_misses::.cpu.data      4197987                       # number of ReadReq MSHR misses
system.cpu.dcache.ReadReq_mshr_misses::total      4197987                       # number of ReadReq MSHR misses
system.cpu.dcache.ReadReq_mshr_miss_latency::.cpu.data 366871329432                       # number of ReadReq MSHR miss cycles
system.cpu.dcache.ReadReq_mshr_miss_latency::total 366871329432                       # number of ReadReq MSHR miss cycles
system.cpu.dcache.ReadReq_mshr_miss_rate::.cpu.data     0.031228                       # mshr miss rate for ReadReq accesses
system.cpu.dcache.ReadReq_mshr_miss_rate::total     0.031228                       # mshr miss rate for ReadReq accesses
system.cpu.dcache.ReadReq_avg_mshr_miss_latency::.cpu.data 87392.202366                       # average ReadReq mshr miss latency
system.cpu.dcache.ReadReq_avg_mshr_miss_latency::total 87392.202366                       # average ReadReq mshr miss latency
system.cpu.dcache.WriteReq_hits::.cpu.data     67241464                       # number of WriteReq hits
system.cpu.dcache.WriteReq_hits::total       67241464                       # number of WriteReq hits
system.cpu.dcache.WriteReq_misses::.cpu.data         1285                       # number of WriteReq misses
system.cpu.dcache.WriteReq_misses::total         1285                       # number of WriteReq misses
system.cpu.dcache.WriteReq_miss_latency::.cpu.data     37452843                       # number of WriteReq miss cycles
system.cpu.dcache.WriteReq_miss_latency::total     37452843                       # number of WriteReq miss cycles
system.cpu.dcache.WriteReq_accesses::.cpu.data     67242749                       # number of WriteReq accesses(hits+misses)
system.cpu.dcache.WriteReq_accesses::total     67242749                       # number of WriteReq accesses(hits+misses)
system.cpu.dcache.WriteReq_miss_rate::.cpu.data     0.000019                       # miss rate for WriteReq accesses
system.cpu.dcache.WriteReq_miss_rate::total     0.000019                       # miss rate for WriteReq accesses
system.cpu.dcache.WriteReq_avg_miss_latency::.cpu.data 29146.181323                       # average WriteReq miss latency
system.cpu.dcache.WriteReq_avg_miss_latency::total 29146.181323                       # average WriteReq miss latency
system.cpu.dcache.WriteReq_mshr_misses::.cpu.data         1285                       # number of WriteReq MSHR misses
system.cpu.dcache.WriteReq_mshr_misses::total         1285                       # number of WriteReq MSHR misses
system.cpu.dcache.WriteReq_mshr_miss_latency::.cpu.data     36597033                       # number of WriteReq MSHR miss cycles
system.cpu.dcache.WriteReq_mshr_miss_latency::total     36597033                       # number of WriteReq MSHR miss cycles
system.cpu.dcache.WriteReq_mshr_miss_rate::.cpu.data     0.000019                       # mshr miss rate for WriteReq accesses
system.cpu.dcache.WriteReq_mshr_miss_rate::total     0.000019                       # mshr miss rate for WriteReq accesses
system.cpu.dcache.WriteReq_avg_mshr_miss_latency::.cpu.data 28480.181323                       # average WriteReq mshr miss latency
system.cpu.dcache.WriteReq_avg_mshr_miss_latency::total 28480.181323                       # average WriteReq mshr miss latency
system.cpu.dcache.tags.pwrStateResidencyTicks::UNDEFINED 881682474960                       # Cumulative time (in ticks) in various power states
system.cpu.dcache.tags.tagsinuse             7.999994                       # Cycle average of tags in use
system.cpu.dcache.tags.total_refs           201673390                       # Total number of references to valid blocks.
system.cpu.dcache.tags.sampled_refs           4199272                       # Sample count of references to valid blocks.
system.cpu.dcache.tags.avg_refs             48.025798                       # Average number of references to valid blocks.
system.cpu.dcache.tags.warmup_cycle            166167                       # Cycle when the warmup percentage was hit.
system.cpu.dcache.tags.occ_blocks::.cpu.data     7.999994                       # Average occupied blocks per requestor
system.cpu.dcache.tags.occ_percent::.cpu.data     0.999999                       # Average percentage of cache occupancy
system.cpu.dcache.tags.occ_percent::total     0.999999                       # Average percentage of cache occupancy
system.cpu.dcache.tags.occ_task_id_blocks::1024            8                       # Occupied blocks per task id
system.cpu.dcache.tags.age_task_id_blocks_1024::0            8                       # Occupied blocks per task id
system.cpu.dcache.tags.occ_task_id_percent::1024            1                       # Percentage of cache occupancy per task id
system.cpu.dcache.tags.tag_accesses        1617586392                       # Number of tag accesses
system.cpu.dcache.tags.data_accesses       1617586392                       # Number of data accesses
system.cpu.dcache.tags.repl_invalid                 0                       # Number of initial replacements
system.cpu.dcache.tags.repl_valid_tag               0                       # Number of local replacements
system.cpu.dcache.tags.repl_valid_data              0                       # Number of global replacements

---------- End Simulation Statistics   ----------
