gem5 Simulator System.  http://gem5.org
gem5 is copyrighted software; use the --copyright option for details.

gem5 compiled Jan  7 2025 10:51:16
gem5 started Jan  7 2025 11:02:14
gem5 executing on masternode, pid 3043026
command line: ./build/X86/gem5.opt --outdir ./mirage_perf_runs/xalancbmk configs/example/spec06_config_multiprogram.py --path /home/user1/mirage_runs/benchmark_wrappers/perlbench_wrapper --benchmark=xalancbmk --num-cpus=1 --mem-size=8GB --mem-type=DDR4_2400_8x8 --cpu-type TimingSimpleCPU --caches --l2cache --l1d_size=512B --l1i_size=32kB --l2_size=16MB --l1d_assoc=8 --l1i_assoc=8 --l2_assoc=16 --mirage_mode=skew-vway-rand --l2_numSkews=2 --l2_TDR=1.75 --l2_EncrLat=3 --prog-interval=300Hz --maxinsts=1000000000

Executing:  /home/user1/mirage_runs/benchmark_wrappers/perlbench_wrapper
Workload-0: 
['/home/user1/mirage_runs/benchmark_wrappers/perlbench_wrapper']
Global frequency set at 1000000000000 ticks per second
CWD: /home/user1/mirage_runs/mirage/perf_analysis/gem5
      0: system.l2.replacement_policy: For Random Skew-Fair replacement policy: numSkews:2, assoc:28. 
      0: system.l2.tags.indexing_policy: Size of Tag-Store for Skewed-Assoc-Randomized - Sets:16384, with Assoc:28 
      0: system.l2.tags: Size of Tag-Store for Vway-Tags is 458752 lines, with assoc:28 and size 29360128 Bytes
      0: system.l2.tags: Actual Size of Cache seen from Vway-Tags is 262144 lines, with assoc:16 and size 16777216 Bytes
      0: system.l2.tags: Data Repl Policy: 0 (0-Random,1-Reuse).
**** REAL SIMULATION ****
3333333333: Event_87: system.cpu progress event, total committed:2571187, progress insts committed: 2571187, IPC: 0.256862
6666666666: Event_87: system.cpu progress event, total committed:5174277, progress insts committed: 2603090, IPC: 0.260049
9999999999: Event_87: system.cpu progress event, total committed:7777319, progress insts committed: 2603042, IPC: 0.260044
13333333332: Event_87: system.cpu progress event, total committed:10380335, progress insts committed: 2603016, IPC: 0.260041
16666666665: Event_87: system.cpu progress event, total committed:12983418, progress insts committed: 2603083, IPC: 0.260048
19999999998: Event_87: system.cpu progress event, total committed:15586471, progress insts committed: 2603053, IPC: 0.260045
23333333331: Event_87: system.cpu progress event, total committed:18189480, progress insts committed: 2603009, IPC: 0.260041
26666666664: Event_87: system.cpu progress event, total committed:20792471, progress insts committed: 2602991, IPC: 0.260039
29999999997: Event_87: system.cpu progress event, total committed:23395319, progress insts committed: 2602848, IPC: 0.260025
33333333330: Event_87: system.cpu progress event, total committed:25998395, progress insts committed: 2603076, IPC: 0.260047
36666666663: Event_87: system.cpu progress event, total committed:28601471, progress insts committed: 2603076, IPC: 0.260047
39999999996: Event_87: system.cpu progress event, total committed:31204471, progress insts committed: 2603000, IPC: 00.26004
43333333329: Event_87: system.cpu progress event, total committed:33807542, progress insts committed: 2603071, IPC: 0.260047
46666666662: Event_87: system.cpu progress event, total committed:36410623, progress insts committed: 2603081, IPC: 0.260048
49999999995: Event_87: system.cpu progress event, total committed:39013623, progress insts committed: 2603000, IPC: 00.26004
53333333328: Event_87: system.cpu progress event, total committed:41616471, progress insts committed: 2602848, IPC: 0.260025
56666666661: Event_87: system.cpu progress event, total committed:44219471, progress insts committed: 2603000, IPC: 00.26004
59999999994: Event_87: system.cpu progress event, total committed:46822516, progress insts committed: 2603045, IPC: 0.260044
63333333327: Event_87: system.cpu progress event, total committed:49425602, progress insts committed: 2603086, IPC: 0.260048
66666666660: Event_87: system.cpu progress event, total committed:52028623, progress insts committed: 2603021, IPC: 0.260042
Epoch 0 finished
CWD: /home/user1/mirage_runs/mirage/perf_analysis/gem5
69999999993: Event_87: system.cpu progress event, total committed:52799119, progress insts committed: 770496, IPC: 0.0769726
73333333326: Event_87: system.cpu progress event, total committed:52799119, progress insts committed: 0, IPC: 00000000
76666666659: Event_87: system.cpu progress event, total committed:52799119, progress insts committed: 0, IPC: 00000000
79999999992: Event_87: system.cpu progress event, total committed:52799119, progress insts committed: 0, IPC: 00000000
83333333325: Event_87: system.cpu progress event, total committed:52799119, progress insts committed: 0, IPC: 00000000
86666666658: Event_87: system.cpu progress event, total committed:52799119, progress insts committed: 0, IPC: 00000000
89999999991: Event_87: system.cpu progress event, total committed:52799119, progress insts committed: 0, IPC: 00000000
93333333324: Event_87: system.cpu progress event, total committed:52799119, progress insts committed: 0, IPC: 00000000
96666666657: Event_87: system.cpu progress event, total committed:52799119, progress insts committed: 0, IPC: 00000000
99999999990: Event_87: system.cpu progress event, total committed:52799119, progress insts committed: 0, IPC: 00000000
103333333323: Event_87: system.cpu progress event, total committed:52799119, progress insts committed: 0, IPC: 00000000
106666666656: Event_87: system.cpu progress event, total committed:52799119, progress insts committed: 0, IPC: 00000000
109999999989: Event_87: system.cpu progress event, total committed:52799119, progress insts committed: 0, IPC: 00000000
113333333322: Event_87: system.cpu progress event, total committed:52799119, progress insts committed: 0, IPC: 00000000
116666666655: Event_87: system.cpu progress event, total committed:52799119, progress insts committed: 0, IPC: 00000000
119999999988: Event_87: system.cpu progress event, total committed:52799119, progress insts committed: 0, IPC: 00000000
123333333321: Event_87: system.cpu progress event, total committed:52799119, progress insts committed: 0, IPC: 00000000
126666666654: Event_87: system.cpu progress event, total committed:52799119, progress insts committed: 0, IPC: 00000000
129999999987: Event_87: system.cpu progress event, total committed:52799119, progress insts committed: 0, IPC: 00000000
133333333320: Event_87: system.cpu progress event, total committed:52799119, progress insts committed: 0, IPC: 00000000
136666666653: Event_87: system.cpu progress event, total committed:52799119, progress insts committed: 0, IPC: 00000000
139999999986: Event_87: system.cpu progress event, total committed:52799119, progress insts committed: 0, IPC: 00000000
143333333319: Event_87: system.cpu progress event, total committed:52799119, progress insts committed: 0, IPC: 00000000
146666666652: Event_87: system.cpu progress event, total committed:52799119, progress insts committed: 0, IPC: 00000000
149999999985: Event_87: system.cpu progress event, total committed:52799119, progress insts committed: 0, IPC: 00000000
153333333318: Event_87: system.cpu progress event, total committed:52799119, progress insts committed: 0, IPC: 00000000
156666666651: Event_87: system.cpu progress event, total committed:52799119, progress insts committed: 0, IPC: 00000000
159999999984: Event_87: system.cpu progress event, total committed:52799119, progress insts committed: 0, IPC: 00000000
163333333317: Event_87: system.cpu progress event, total committed:52799119, progress insts committed: 0, IPC: 00000000
166666666650: Event_87: system.cpu progress event, total committed:52799119, progress insts committed: 0, IPC: 00000000
169999999983: Event_87: system.cpu progress event, total committed:52799119, progress insts committed: 0, IPC: 00000000
173333333316: Event_87: system.cpu progress event, total committed:52799119, progress insts committed: 0, IPC: 00000000
176666666649: Event_87: system.cpu progress event, total committed:52799119, progress insts committed: 0, IPC: 00000000
179999999982: Event_87: system.cpu progress event, total committed:52799119, progress insts committed: 0, IPC: 00000000
183333333315: Event_87: system.cpu progress event, total committed:52799119, progress insts committed: 0, IPC: 00000000
186666666648: Event_87: system.cpu progress event, total committed:52799119, progress insts committed: 0, IPC: 00000000
189999999981: Event_87: system.cpu progress event, total committed:52799119, progress insts committed: 0, IPC: 00000000
193333333314: Event_87: system.cpu progress event, total committed:52799119, progress insts committed: 0, IPC: 00000000
196666666647: Event_87: system.cpu progress event, total committed:52799119, progress insts committed: 0, IPC: 00000000
199999999980: Event_87: system.cpu progress event, total committed:52799119, progress insts committed: 0, IPC: 00000000
203333333313: Event_87: system.cpu progress event, total committed:52799119, progress insts committed: 0, IPC: 00000000
206666666646: Event_87: system.cpu progress event, total committed:52799119, progress insts committed: 0, IPC: 00000000
209999999979: Event_87: system.cpu progress event, total committed:52799119, progress insts committed: 0, IPC: 00000000
213333333312: Event_87: system.cpu progress event, total committed:52799119, progress insts committed: 0, IPC: 00000000
216666666645: Event_87: system.cpu progress event, total committed:52799119, progress insts committed: 0, IPC: 00000000
219999999978: Event_87: system.cpu progress event, total committed:52799119, progress insts committed: 0, IPC: 00000000
223333333311: Event_87: system.cpu progress event, total committed:52799119, progress insts committed: 0, IPC: 00000000
226666666644: Event_87: system.cpu progress event, total committed:52799119, progress insts committed: 0, IPC: 00000000
229999999977: Event_87: system.cpu progress event, total committed:52799119, progress insts committed: 0, IPC: 00000000
233333333310: Event_87: system.cpu progress event, total committed:52799119, progress insts committed: 0, IPC: 00000000
236666666643: Event_87: system.cpu progress event, total committed:52799119, progress insts committed: 0, IPC: 00000000
239999999976: Event_87: system.cpu progress event, total committed:52799119, progress insts committed: 0, IPC: 00000000
243333333309: Event_87: system.cpu progress event, total committed:52799119, progress insts committed: 0, IPC: 00000000
246666666642: Event_87: system.cpu progress event, total committed:52799119, progress insts committed: 0, IPC: 00000000
249999999975: Event_87: system.cpu progress event, total committed:52799119, progress insts committed: 0, IPC: 00000000
253333333308: Event_87: system.cpu progress event, total committed:52799119, progress insts committed: 0, IPC: 00000000
256666666641: Event_87: system.cpu progress event, total committed:52799119, progress insts committed: 0, IPC: 00000000
259999999974: Event_87: system.cpu progress event, total committed:52799119, progress insts committed: 0, IPC: 00000000
263333333307: Event_87: system.cpu progress event, total committed:52799119, progress insts committed: 0, IPC: 00000000
266666666640: Event_87: system.cpu progress event, total committed:52799119, progress insts committed: 0, IPC: 00000000
269999999973: Event_87: system.cpu progress event, total committed:52799119, progress insts committed: 0, IPC: 00000000
273333333306: Event_87: system.cpu progress event, total committed:52799119, progress insts committed: 0, IPC: 00000000
276666666639: Event_87: system.cpu progress event, total committed:52799119, progress insts committed: 0, IPC: 00000000
279999999972: Event_87: system.cpu progress event, total committed:52799119, progress insts committed: 0, IPC: 00000000
283333333305: Event_87: system.cpu progress event, total committed:52799119, progress insts committed: 0, IPC: 00000000
286666666638: Event_87: system.cpu progress event, total committed:52799119, progress insts committed: 0, IPC: 00000000
289999999971: Event_87: system.cpu progress event, total committed:52799119, progress insts committed: 0, IPC: 00000000
293333333304: Event_87: system.cpu progress event, total committed:52799119, progress insts committed: 0, IPC: 00000000
296666666637: Event_87: system.cpu progress event, total committed:52799119, progress insts committed: 0, IPC: 00000000
299999999970: Event_87: system.cpu progress event, total committed:52799119, progress insts committed: 0, IPC: 00000000
303333333303: Event_87: system.cpu progress event, total committed:52799119, progress insts committed: 0, IPC: 00000000
306666666636: Event_87: system.cpu progress event, total committed:52799119, progress insts committed: 0, IPC: 00000000
309999999969: Event_87: system.cpu progress event, total committed:52799119, progress insts committed: 0, IPC: 00000000
313333333302: Event_87: system.cpu progress event, total committed:52799119, progress insts committed: 0, IPC: 00000000
316666666635: Event_87: system.cpu progress event, total committed:52799119, progress insts committed: 0, IPC: 00000000
319999999968: Event_87: system.cpu progress event, total committed:52799119, progress insts committed: 0, IPC: 00000000
323333333301: Event_87: system.cpu progress event, total committed:52799119, progress insts committed: 0, IPC: 00000000
326666666634: Event_87: system.cpu progress event, total committed:52799119, progress insts committed: 0, IPC: 00000000
329999999967: Event_87: system.cpu progress event, total committed:52799119, progress insts committed: 0, IPC: 00000000
333333333300: Event_87: system.cpu progress event, total committed:52799119, progress insts committed: 0, IPC: 00000000
336666666633: Event_87: system.cpu progress event, total committed:52799119, progress insts committed: 0, IPC: 00000000
339999999966: Event_87: system.cpu progress event, total committed:52799119, progress insts committed: 0, IPC: 00000000
343333333299: Event_87: system.cpu progress event, total committed:52799119, progress insts committed: 0, IPC: 00000000
346666666632: Event_87: system.cpu progress event, total committed:52799119, progress insts committed: 0, IPC: 00000000
349999999965: Event_87: system.cpu progress event, total committed:52799119, progress insts committed: 0, IPC: 00000000
353333333298: Event_87: system.cpu progress event, total committed:52799119, progress insts committed: 0, IPC: 00000000
356666666631: Event_87: system.cpu progress event, total committed:52799119, progress insts committed: 0, IPC: 00000000
359999999964: Event_87: system.cpu progress event, total committed:52799119, progress insts committed: 0, IPC: 00000000
363333333297: Event_87: system.cpu progress event, total committed:52799119, progress insts committed: 0, IPC: 00000000
366666666630: Event_87: system.cpu progress event, total committed:52799119, progress insts committed: 0, IPC: 00000000
369999999963: Event_87: system.cpu progress event, total committed:52799119, progress insts committed: 0, IPC: 00000000
373333333296: Event_87: system.cpu progress event, total committed:52799119, progress insts committed: 0, IPC: 00000000
376666666629: Event_87: system.cpu progress event, total committed:52799119, progress insts committed: 0, IPC: 00000000
379999999962: Event_87: system.cpu progress event, total committed:52799119, progress insts committed: 0, IPC: 00000000
383333333295: Event_87: system.cpu progress event, total committed:52799119, progress insts committed: 0, IPC: 00000000
386666666628: Event_87: system.cpu progress event, total committed:52799119, progress insts committed: 0, IPC: 00000000
389999999961: Event_87: system.cpu progress event, total committed:52799119, progress insts committed: 0, IPC: 00000000
393333333294: Event_87: system.cpu progress event, total committed:52799119, progress insts committed: 0, IPC: 00000000
396666666627: Event_87: system.cpu progress event, total committed:52799119, progress insts committed: 0, IPC: 00000000
399999999960: Event_87: system.cpu progress event, total committed:52799119, progress insts committed: 0, IPC: 00000000
403333333293: Event_87: system.cpu progress event, total committed:52799119, progress insts committed: 0, IPC: 00000000
406666666626: Event_87: system.cpu progress event, total committed:52799119, progress insts committed: 0, IPC: 00000000
409999999959: Event_87: system.cpu progress event, total committed:52799119, progress insts committed: 0, IPC: 00000000
413333333292: Event_87: system.cpu progress event, total committed:52799119, progress insts committed: 0, IPC: 00000000
416666666625: Event_87: system.cpu progress event, total committed:52799119, progress insts committed: 0, IPC: 00000000
419999999958: Event_87: system.cpu progress event, total committed:52799119, progress insts committed: 0, IPC: 00000000
423333333291: Event_87: system.cpu progress event, total committed:52799119, progress insts committed: 0, IPC: 00000000
426666666624: Event_87: system.cpu progress event, total committed:52799119, progress insts committed: 0, IPC: 00000000
429999999957: Event_87: system.cpu progress event, total committed:52799119, progress insts committed: 0, IPC: 00000000
433333333290: Event_87: system.cpu progress event, total committed:52799119, progress insts committed: 0, IPC: 00000000
436666666623: Event_87: system.cpu progress event, total committed:52799119, progress insts committed: 0, IPC: 00000000
439999999956: Event_87: system.cpu progress event, total committed:52799119, progress insts committed: 0, IPC: 00000000
443333333289: Event_87: system.cpu progress event, total committed:52799119, progress insts committed: 0, IPC: 00000000
446666666622: Event_87: system.cpu progress event, total committed:52799119, progress insts committed: 0, IPC: 00000000
449999999955: Event_87: system.cpu progress event, total committed:52799119, progress insts committed: 0, IPC: 00000000
453333333288: Event_87: system.cpu progress event, total committed:52799119, progress insts committed: 0, IPC: 00000000
456666666621: Event_87: system.cpu progress event, total committed:52799119, progress insts committed: 0, IPC: 00000000
459999999954: Event_87: system.cpu progress event, total committed:52799119, progress insts committed: 0, IPC: 00000000
463333333287: Event_87: system.cpu progress event, total committed:52799119, progress insts committed: 0, IPC: 00000000
466666666620: Event_87: system.cpu progress event, total committed:52799119, progress insts committed: 0, IPC: 00000000
469999999953: Event_87: system.cpu progress event, total committed:52799119, progress insts committed: 0, IPC: 00000000
473333333286: Event_87: system.cpu progress event, total committed:52799119, progress insts committed: 0, IPC: 00000000
476666666619: Event_87: system.cpu progress event, total committed:52799119, progress insts committed: 0, IPC: 00000000
479999999952: Event_87: system.cpu progress event, total committed:52799119, progress insts committed: 0, IPC: 00000000
483333333285: Event_87: system.cpu progress event, total committed:52799119, progress insts committed: 0, IPC: 00000000
486666666618: Event_87: system.cpu progress event, total committed:52799119, progress insts committed: 0, IPC: 00000000
489999999951: Event_87: system.cpu progress event, total committed:52799119, progress insts committed: 0, IPC: 00000000
493333333284: Event_87: system.cpu progress event, total committed:52799119, progress insts committed: 0, IPC: 00000000
496666666617: Event_87: system.cpu progress event, total committed:52799119, progress insts committed: 0, IPC: 00000000
499999999950: Event_87: system.cpu progress event, total committed:52799119, progress insts committed: 0, IPC: 00000000
503333333283: Event_87: system.cpu progress event, total committed:52799119, progress insts committed: 0, IPC: 00000000
506666666616: Event_87: system.cpu progress event, total committed:52799119, progress insts committed: 0, IPC: 00000000
509999999949: Event_87: system.cpu progress event, total committed:52799119, progress insts committed: 0, IPC: 00000000
513333333282: Event_87: system.cpu progress event, total committed:52799119, progress insts committed: 0, IPC: 00000000
516666666615: Event_87: system.cpu progress event, total committed:52799119, progress insts committed: 0, IPC: 00000000
519999999948: Event_87: system.cpu progress event, total committed:52799119, progress insts committed: 0, IPC: 00000000
523333333281: Event_87: system.cpu progress event, total committed:52799119, progress insts committed: 0, IPC: 00000000
526666666614: Event_87: system.cpu progress event, total committed:52799119, progress insts committed: 0, IPC: 00000000
529999999947: Event_87: system.cpu progress event, total committed:52799119, progress insts committed: 0, IPC: 00000000
533333333280: Event_87: system.cpu progress event, total committed:52799119, progress insts committed: 0, IPC: 00000000
536666666613: Event_87: system.cpu progress event, total committed:52799119, progress insts committed: 0, IPC: 00000000
539999999946: Event_87: system.cpu progress event, total committed:52799119, progress insts committed: 0, IPC: 00000000
543333333279: Event_87: system.cpu progress event, total committed:52799119, progress insts committed: 0, IPC: 00000000
546666666612: Event_87: system.cpu progress event, total committed:52799119, progress insts committed: 0, IPC: 00000000
549999999945: Event_87: system.cpu progress event, total committed:52799119, progress insts committed: 0, IPC: 00000000
553333333278: Event_87: system.cpu progress event, total committed:52799119, progress insts committed: 0, IPC: 00000000
556666666611: Event_87: system.cpu progress event, total committed:52799119, progress insts committed: 0, IPC: 00000000
559999999944: Event_87: system.cpu progress event, total committed:52799119, progress insts committed: 0, IPC: 00000000
563333333277: Event_87: system.cpu progress event, total committed:52799119, progress insts committed: 0, IPC: 00000000
566666666610: Event_87: system.cpu progress event, total committed:52799119, progress insts committed: 0, IPC: 00000000
569999999943: Event_87: system.cpu progress event, total committed:52799119, progress insts committed: 0, IPC: 00000000
573333333276: Event_87: system.cpu progress event, total committed:52799119, progress insts committed: 0, IPC: 00000000
576666666609: Event_87: system.cpu progress event, total committed:52799119, progress insts committed: 0, IPC: 00000000
579999999942: Event_87: system.cpu progress event, total committed:52799119, progress insts committed: 0, IPC: 00000000
583333333275: Event_87: system.cpu progress event, total committed:52799119, progress insts committed: 0, IPC: 00000000
586666666608: Event_87: system.cpu progress event, total committed:52799119, progress insts committed: 0, IPC: 00000000
589999999941: Event_87: system.cpu progress event, total committed:52799119, progress insts committed: 0, IPC: 00000000
593333333274: Event_87: system.cpu progress event, total committed:52799119, progress insts committed: 0, IPC: 00000000
596666666607: Event_87: system.cpu progress event, total committed:52799119, progress insts committed: 0, IPC: 00000000
599999999940: Event_87: system.cpu progress event, total committed:52799119, progress insts committed: 0, IPC: 00000000
603333333273: Event_87: system.cpu progress event, total committed:52799119, progress insts committed: 0, IPC: 00000000
606666666606: Event_87: system.cpu progress event, total committed:52799119, progress insts committed: 0, IPC: 00000000
609999999939: Event_87: system.cpu progress event, total committed:52799119, progress insts committed: 0, IPC: 00000000
613333333272: Event_87: system.cpu progress event, total committed:52799119, progress insts committed: 0, IPC: 00000000
616666666605: Event_87: system.cpu progress event, total committed:52799119, progress insts committed: 0, IPC: 00000000
619999999938: Event_87: system.cpu progress event, total committed:52799119, progress insts committed: 0, IPC: 00000000
623333333271: Event_87: system.cpu progress event, total committed:52799119, progress insts committed: 0, IPC: 00000000
626666666604: Event_87: system.cpu progress event, total committed:52799119, progress insts committed: 0, IPC: 00000000
629999999937: Event_87: system.cpu progress event, total committed:52799119, progress insts committed: 0, IPC: 00000000
633333333270: Event_87: system.cpu progress event, total committed:52799119, progress insts committed: 0, IPC: 00000000
636666666603: Event_87: system.cpu progress event, total committed:52799119, progress insts committed: 0, IPC: 00000000
639999999936: Event_87: system.cpu progress event, total committed:52799119, progress insts committed: 0, IPC: 00000000
643333333269: Event_87: system.cpu progress event, total committed:52799119, progress insts committed: 0, IPC: 00000000
646666666602: Event_87: system.cpu progress event, total committed:52799119, progress insts committed: 0, IPC: 00000000
649999999935: Event_87: system.cpu progress event, total committed:52799119, progress insts committed: 0, IPC: 00000000
653333333268: Event_87: system.cpu progress event, total committed:52799119, progress insts committed: 0, IPC: 00000000
656666666601: Event_87: system.cpu progress event, total committed:52799119, progress insts committed: 0, IPC: 00000000
659999999934: Event_87: system.cpu progress event, total committed:52799119, progress insts committed: 0, IPC: 00000000
663333333267: Event_87: system.cpu progress event, total committed:52799119, progress insts committed: 0, IPC: 00000000
666666666600: Event_87: system.cpu progress event, total committed:52799119, progress insts committed: 0, IPC: 00000000
669999999933: Event_87: system.cpu progress event, total committed:52799119, progress insts committed: 0, IPC: 00000000
673333333266: Event_87: system.cpu progress event, total committed:52799119, progress insts committed: 0, IPC: 00000000
676666666599: Event_87: system.cpu progress event, total committed:52799119, progress insts committed: 0, IPC: 00000000
679999999932: Event_87: system.cpu progress event, total committed:52799119, progress insts committed: 0, IPC: 00000000
683333333265: Event_87: system.cpu progress event, total committed:52799119, progress insts committed: 0, IPC: 00000000
686666666598: Event_87: system.cpu progress event, total committed:52799119, progress insts committed: 0, IPC: 00000000
689999999931: Event_87: system.cpu progress event, total committed:52799119, progress insts committed: 0, IPC: 00000000
693333333264: Event_87: system.cpu progress event, total committed:52799119, progress insts committed: 0, IPC: 00000000
696666666597: Event_87: system.cpu progress event, total committed:52799119, progress insts committed: 0, IPC: 00000000
699999999930: Event_87: system.cpu progress event, total committed:52799119, progress insts committed: 0, IPC: 00000000
703333333263: Event_87: system.cpu progress event, total committed:52799119, progress insts committed: 0, IPC: 00000000
706666666596: Event_87: system.cpu progress event, total committed:52799119, progress insts committed: 0, IPC: 00000000
709999999929: Event_87: system.cpu progress event, total committed:52799119, progress insts committed: 0, IPC: 00000000
713333333262: Event_87: system.cpu progress event, total committed:52799119, progress insts committed: 0, IPC: 00000000
716666666595: Event_87: system.cpu progress event, total committed:52799119, progress insts committed: 0, IPC: 00000000
719999999928: Event_87: system.cpu progress event, total committed:52799119, progress insts committed: 0, IPC: 00000000
723333333261: Event_87: system.cpu progress event, total committed:52799119, progress insts committed: 0, IPC: 00000000
726666666594: Event_87: system.cpu progress event, total committed:52799119, progress insts committed: 0, IPC: 00000000
729999999927: Event_87: system.cpu progress event, total committed:52799119, progress insts committed: 0, IPC: 00000000
733333333260: Event_87: system.cpu progress event, total committed:52799119, progress insts committed: 0, IPC: 00000000
736666666593: Event_87: system.cpu progress event, total committed:52799119, progress insts committed: 0, IPC: 00000000
739999999926: Event_87: system.cpu progress event, total committed:52799119, progress insts committed: 0, IPC: 00000000
743333333259: Event_87: system.cpu progress event, total committed:52799119, progress insts committed: 0, IPC: 00000000
746666666592: Event_87: system.cpu progress event, total committed:52799119, progress insts committed: 0, IPC: 00000000
749999999925: Event_87: system.cpu progress event, total committed:52799119, progress insts committed: 0, IPC: 00000000
753333333258: Event_87: system.cpu progress event, total committed:52799119, progress insts committed: 0, IPC: 00000000
756666666591: Event_87: system.cpu progress event, total committed:52799119, progress insts committed: 0, IPC: 00000000
759999999924: Event_87: system.cpu progress event, total committed:52799119, progress insts committed: 0, IPC: 00000000
763333333257: Event_87: system.cpu progress event, total committed:52799119, progress insts committed: 0, IPC: 00000000
766666666590: Event_87: system.cpu progress event, total committed:52799119, progress insts committed: 0, IPC: 00000000
769999999923: Event_87: system.cpu progress event, total committed:52799119, progress insts committed: 0, IPC: 00000000
773333333256: Event_87: system.cpu progress event, total committed:52799119, progress insts committed: 0, IPC: 00000000
776666666589: Event_87: system.cpu progress event, total committed:52799119, progress insts committed: 0, IPC: 00000000
779999999922: Event_87: system.cpu progress event, total committed:52799119, progress insts committed: 0, IPC: 00000000
783333333255: Event_87: system.cpu progress event, total committed:52799119, progress insts committed: 0, IPC: 00000000
786666666588: Event_87: system.cpu progress event, total committed:52799119, progress insts committed: 0, IPC: 00000000
789999999921: Event_87: system.cpu progress event, total committed:52799119, progress insts committed: 0, IPC: 00000000
793333333254: Event_87: system.cpu progress event, total committed:52799119, progress insts committed: 0, IPC: 00000000
796666666587: Event_87: system.cpu progress event, total committed:52799119, progress insts committed: 0, IPC: 00000000
799999999920: Event_87: system.cpu progress event, total committed:52799119, progress insts committed: 0, IPC: 00000000
803333333253: Event_87: system.cpu progress event, total committed:52799119, progress insts committed: 0, IPC: 00000000
806666666586: Event_87: system.cpu progress event, total committed:52799119, progress insts committed: 0, IPC: 00000000
809999999919: Event_87: system.cpu progress event, total committed:52799119, progress insts committed: 0, IPC: 00000000
813333333252: Event_87: system.cpu progress event, total committed:52799119, progress insts committed: 0, IPC: 00000000
816666666585: Event_87: system.cpu progress event, total committed:52799119, progress insts committed: 0, IPC: 00000000
819999999918: Event_87: system.cpu progress event, total committed:52799119, progress insts committed: 0, IPC: 00000000
823333333251: Event_87: system.cpu progress event, total committed:52799119, progress insts committed: 0, IPC: 00000000
826666666584: Event_87: system.cpu progress event, total committed:52799119, progress insts committed: 0, IPC: 00000000
829999999917: Event_87: system.cpu progress event, total committed:52799119, progress insts committed: 0, IPC: 00000000
833333333250: Event_87: system.cpu progress event, total committed:52799119, progress insts committed: 0, IPC: 00000000
836666666583: Event_87: system.cpu progress event, total committed:52799119, progress insts committed: 0, IPC: 00000000
839999999916: Event_87: system.cpu progress event, total committed:52799119, progress insts committed: 0, IPC: 00000000
843333333249: Event_87: system.cpu progress event, total committed:52799119, progress insts committed: 0, IPC: 00000000
846666666582: Event_87: system.cpu progress event, total committed:52799119, progress insts committed: 0, IPC: 00000000
849999999915: Event_87: system.cpu progress event, total committed:52799119, progress insts committed: 0, IPC: 00000000
853333333248: Event_87: system.cpu progress event, total committed:52799119, progress insts committed: 0, IPC: 00000000
856666666581: Event_87: system.cpu progress event, total committed:52799119, progress insts committed: 0, IPC: 00000000
859999999914: Event_87: system.cpu progress event, total committed:52799119, progress insts committed: 0, IPC: 00000000
863333333247: Event_87: system.cpu progress event, total committed:52799119, progress insts committed: 0, IPC: 00000000
866666666580: Event_87: system.cpu progress event, total committed:52799119, progress insts committed: 0, IPC: 00000000
869999999913: Event_87: system.cpu progress event, total committed:52799119, progress insts committed: 0, IPC: 00000000
873333333246: Event_87: system.cpu progress event, total committed:52799119, progress insts committed: 0, IPC: 00000000
876666666579: Event_87: system.cpu progress event, total committed:52799119, progress insts committed: 0, IPC: 00000000
879999999912: Event_87: system.cpu progress event, total committed:52799119, progress insts committed: 0, IPC: 00000000
883333333245: Event_87: system.cpu progress event, total committed:52799119, progress insts committed: 0, IPC: 00000000
886666666578: Event_87: system.cpu progress event, total committed:52799119, progress insts committed: 0, IPC: 00000000
889999999911: Event_87: system.cpu progress event, total committed:52799119, progress insts committed: 0, IPC: 00000000
893333333244: Event_87: system.cpu progress event, total committed:52799119, progress insts committed: 0, IPC: 00000000
896666666577: Event_87: system.cpu progress event, total committed:52799119, progress insts committed: 0, IPC: 00000000
899999999910: Event_87: system.cpu progress event, total committed:52799119, progress insts committed: 0, IPC: 00000000
903333333243: Event_87: system.cpu progress event, total committed:52799119, progress insts committed: 0, IPC: 00000000
906666666576: Event_87: system.cpu progress event, total committed:52799119, progress insts committed: 0, IPC: 00000000
909999999909: Event_87: system.cpu progress event, total committed:52799119, progress insts committed: 0, IPC: 00000000
913333333242: Event_87: system.cpu progress event, total committed:52799119, progress insts committed: 0, IPC: 00000000
916666666575: Event_87: system.cpu progress event, total committed:52799119, progress insts committed: 0, IPC: 00000000
919999999908: Event_87: system.cpu progress event, total committed:52799119, progress insts committed: 0, IPC: 00000000
923333333241: Event_87: system.cpu progress event, total committed:52799119, progress insts committed: 0, IPC: 00000000
926666666574: Event_87: system.cpu progress event, total committed:52799119, progress insts committed: 0, IPC: 00000000
929999999907: Event_87: system.cpu progress event, total committed:52799119, progress insts committed: 0, IPC: 00000000
933333333240: Event_87: system.cpu progress event, total committed:52799119, progress insts committed: 0, IPC: 00000000
936666666573: Event_87: system.cpu progress event, total committed:52799119, progress insts committed: 0, IPC: 00000000
939999999906: Event_87: system.cpu progress event, total committed:52799119, progress insts committed: 0, IPC: 00000000
943333333239: Event_87: system.cpu progress event, total committed:52799119, progress insts committed: 0, IPC: 00000000
946666666572: Event_87: system.cpu progress event, total committed:52799119, progress insts committed: 0, IPC: 00000000
949999999905: Event_87: system.cpu progress event, total committed:52799119, progress insts committed: 0, IPC: 00000000
953333333238: Event_87: system.cpu progress event, total committed:52799119, progress insts committed: 0, IPC: 00000000
956666666571: Event_87: system.cpu progress event, total committed:52799119, progress insts committed: 0, IPC: 00000000
959999999904: Event_87: system.cpu progress event, total committed:52799119, progress insts committed: 0, IPC: 00000000
963333333237: Event_87: system.cpu progress event, total committed:52799119, progress insts committed: 0, IPC: 00000000
966666666570: Event_87: system.cpu progress event, total committed:52799119, progress insts committed: 0, IPC: 00000000
969999999903: Event_87: system.cpu progress event, total committed:52799119, progress insts committed: 0, IPC: 00000000
973333333236: Event_87: system.cpu progress event, total committed:52799119, progress insts committed: 0, IPC: 00000000
976666666569: Event_87: system.cpu progress event, total committed:52799119, progress insts committed: 0, IPC: 00000000
979999999902: Event_87: system.cpu progress event, total committed:52799119, progress insts committed: 0, IPC: 00000000
983333333235: Event_87: system.cpu progress event, total committed:52799119, progress insts committed: 0, IPC: 00000000
986666666568: Event_87: system.cpu progress event, total committed:52799119, progress insts committed: 0, IPC: 00000000
989999999901: Event_87: system.cpu progress event, total committed:52799119, progress insts committed: 0, IPC: 00000000
993333333234: Event_87: system.cpu progress event, total committed:52799119, progress insts committed: 0, IPC: 00000000
996666666567: Event_87: system.cpu progress event, total committed:52799119, progress insts committed: 0, IPC: 00000000
999999999900: Event_87: system.cpu progress event, total committed:52799119, progress insts committed: 0, IPC: 00000000
1003333333233: Event_87: system.cpu progress event, total committed:52799119, progress insts committed: 0, IPC: 00000000
1006666666566: Event_87: system.cpu progress event, total committed:52799119, progress insts committed: 0, IPC: 00000000
1009999999899: Event_87: system.cpu progress event, total committed:52799119, progress insts committed: 0, IPC: 00000000
1013333333232: Event_87: system.cpu progress event, total committed:52799119, progress insts committed: 0, IPC: 00000000
1016666666565: Event_87: system.cpu progress event, total committed:52799119, progress insts committed: 0, IPC: 00000000
1019999999898: Event_87: system.cpu progress event, total committed:52799119, progress insts committed: 0, IPC: 00000000
1023333333231: Event_87: system.cpu progress event, total committed:52799119, progress insts committed: 0, IPC: 00000000
1026666666564: Event_87: system.cpu progress event, total committed:52799119, progress insts committed: 0, IPC: 00000000
1029999999897: Event_87: system.cpu progress event, total committed:52799119, progress insts committed: 0, IPC: 00000000
1033333333230: Event_87: system.cpu progress event, total committed:52799119, progress insts committed: 0, IPC: 00000000
1036666666563: Event_87: system.cpu progress event, total committed:52799119, progress insts committed: 0, IPC: 00000000
1039999999896: Event_87: system.cpu progress event, total committed:52799119, progress insts committed: 0, IPC: 00000000
1043333333229: Event_87: system.cpu progress event, total committed:52799119, progress insts committed: 0, IPC: 00000000
1046666666562: Event_87: system.cpu progress event, total committed:52799119, progress insts committed: 0, IPC: 00000000
1049999999895: Event_87: system.cpu progress event, total committed:52799119, progress insts committed: 0, IPC: 00000000
1053333333228: Event_87: system.cpu progress event, total committed:52799119, progress insts committed: 0, IPC: 00000000
1056666666561: Event_87: system.cpu progress event, total committed:52799119, progress insts committed: 0, IPC: 00000000
1059999999894: Event_87: system.cpu progress event, total committed:52799119, progress insts committed: 0, IPC: 00000000
1063333333227: Event_87: system.cpu progress event, total committed:52799119, progress insts committed: 0, IPC: 00000000
1066666666560: Event_87: system.cpu progress event, total committed:52799119, progress insts committed: 0, IPC: 00000000
1069999999893: Event_87: system.cpu progress event, total committed:52799119, progress insts committed: 0, IPC: 00000000
1073333333226: Event_87: system.cpu progress event, total committed:52799119, progress insts committed: 0, IPC: 00000000
1076666666559: Event_87: system.cpu progress event, total committed:52799119, progress insts committed: 0, IPC: 00000000
1079999999892: Event_87: system.cpu progress event, total committed:52799119, progress insts committed: 0, IPC: 00000000
1083333333225: Event_87: system.cpu progress event, total committed:52799119, progress insts committed: 0, IPC: 00000000
1086666666558: Event_87: system.cpu progress event, total committed:52799119, progress insts committed: 0, IPC: 00000000
1089999999891: Event_87: system.cpu progress event, total committed:52799119, progress insts committed: 0, IPC: 00000000
1093333333224: Event_87: system.cpu progress event, total committed:52799119, progress insts committed: 0, IPC: 00000000
1096666666557: Event_87: system.cpu progress event, total committed:52799119, progress insts committed: 0, IPC: 00000000
1099999999890: Event_87: system.cpu progress event, total committed:52799119, progress insts committed: 0, IPC: 00000000
1103333333223: Event_87: system.cpu progress event, total committed:52799119, progress insts committed: 0, IPC: 00000000
1106666666556: Event_87: system.cpu progress event, total committed:52799119, progress insts committed: 0, IPC: 00000000
1109999999889: Event_87: system.cpu progress event, total committed:52799119, progress insts committed: 0, IPC: 00000000
1113333333222: Event_87: system.cpu progress event, total committed:52799119, progress insts committed: 0, IPC: 00000000
1116666666555: Event_87: system.cpu progress event, total committed:52799119, progress insts committed: 0, IPC: 00000000
1119999999888: Event_87: system.cpu progress event, total committed:52799119, progress insts committed: 0, IPC: 00000000
1123333333221: Event_87: system.cpu progress event, total committed:52799119, progress insts committed: 0, IPC: 00000000
1126666666554: Event_87: system.cpu progress event, total committed:52799119, progress insts committed: 0, IPC: 00000000
1129999999887: Event_87: system.cpu progress event, total committed:52799119, progress insts committed: 0, IPC: 00000000
1133333333220: Event_87: system.cpu progress event, total committed:52799119, progress insts committed: 0, IPC: 00000000
1136666666553: Event_87: system.cpu progress event, total committed:52799119, progress insts committed: 0, IPC: 00000000
1139999999886: Event_87: system.cpu progress event, total committed:52799119, progress insts committed: 0, IPC: 00000000
1143333333219: Event_87: system.cpu progress event, total committed:52799119, progress insts committed: 0, IPC: 00000000
1146666666552: Event_87: system.cpu progress event, total committed:52799119, progress insts committed: 0, IPC: 00000000
1149999999885: Event_87: system.cpu progress event, total committed:52799119, progress insts committed: 0, IPC: 00000000
1153333333218: Event_87: system.cpu progress event, total committed:52799119, progress insts committed: 0, IPC: 00000000
1156666666551: Event_87: system.cpu progress event, total committed:52799119, progress insts committed: 0, IPC: 00000000
1159999999884: Event_87: system.cpu progress event, total committed:52799119, progress insts committed: 0, IPC: 00000000
1163333333217: Event_87: system.cpu progress event, total committed:52799119, progress insts committed: 0, IPC: 00000000
1166666666550: Event_87: system.cpu progress event, total committed:52799119, progress insts committed: 0, IPC: 00000000
1169999999883: Event_87: system.cpu progress event, total committed:52799119, progress insts committed: 0, IPC: 00000000
1173333333216: Event_87: system.cpu progress event, total committed:52799119, progress insts committed: 0, IPC: 00000000
1176666666549: Event_87: system.cpu progress event, total committed:52799119, progress insts committed: 0, IPC: 00000000
1179999999882: Event_87: system.cpu progress event, total committed:52799119, progress insts committed: 0, IPC: 00000000
1183333333215: Event_87: system.cpu progress event, total committed:52799119, progress insts committed: 0, IPC: 00000000
1186666666548: Event_87: system.cpu progress event, total committed:52799119, progress insts committed: 0, IPC: 00000000
1189999999881: Event_87: system.cpu progress event, total committed:52799119, progress insts committed: 0, IPC: 00000000
1193333333214: Event_87: system.cpu progress event, total committed:52799119, progress insts committed: 0, IPC: 00000000
1196666666547: Event_87: system.cpu progress event, total committed:52799119, progress insts committed: 0, IPC: 00000000
1199999999880: Event_87: system.cpu progress event, total committed:52799119, progress insts committed: 0, IPC: 00000000
1203333333213: Event_87: system.cpu progress event, total committed:52799119, progress insts committed: 0, IPC: 00000000
1206666666546: Event_87: system.cpu progress event, total committed:52799119, progress insts committed: 0, IPC: 00000000
1209999999879: Event_87: system.cpu progress event, total committed:52799119, progress insts committed: 0, IPC: 00000000
1213333333212: Event_87: system.cpu progress event, total committed:52799119, progress insts committed: 0, IPC: 00000000
1216666666545: Event_87: system.cpu progress event, total committed:52799119, progress insts committed: 0, IPC: 00000000
1219999999878: Event_87: system.cpu progress event, total committed:52799119, progress insts committed: 0, IPC: 00000000
1223333333211: Event_87: system.cpu progress event, total committed:52799119, progress insts committed: 0, IPC: 00000000
1226666666544: Event_87: system.cpu progress event, total committed:52799119, progress insts committed: 0, IPC: 00000000
1229999999877: Event_87: system.cpu progress event, total committed:52799119, progress insts committed: 0, IPC: 00000000
1233333333210: Event_87: system.cpu progress event, total committed:52799119, progress insts committed: 0, IPC: 00000000
1236666666543: Event_87: system.cpu progress event, total committed:52799119, progress insts committed: 0, IPC: 00000000
1239999999876: Event_87: system.cpu progress event, total committed:52799119, progress insts committed: 0, IPC: 00000000
1243333333209: Event_87: system.cpu progress event, total committed:52799119, progress insts committed: 0, IPC: 00000000
1246666666542: Event_87: system.cpu progress event, total committed:52799119, progress insts committed: 0, IPC: 00000000
1249999999875: Event_87: system.cpu progress event, total committed:52799119, progress insts committed: 0, IPC: 00000000
1253333333208: Event_87: system.cpu progress event, total committed:52799119, progress insts committed: 0, IPC: 00000000
1256666666541: Event_87: system.cpu progress event, total committed:52799119, progress insts committed: 0, IPC: 00000000
1259999999874: Event_87: system.cpu progress event, total committed:52799119, progress insts committed: 0, IPC: 00000000
1263333333207: Event_87: system.cpu progress event, total committed:52799119, progress insts committed: 0, IPC: 00000000
1266666666540: Event_87: system.cpu progress event, total committed:52799119, progress insts committed: 0, IPC: 00000000
1269999999873: Event_87: system.cpu progress event, total committed:52799119, progress insts committed: 0, IPC: 00000000
1273333333206: Event_87: system.cpu progress event, total committed:52799119, progress insts committed: 0, IPC: 00000000
1276666666539: Event_87: system.cpu progress event, total committed:52799119, progress insts committed: 0, IPC: 00000000
1279999999872: Event_87: system.cpu progress event, total committed:52799119, progress insts committed: 0, IPC: 00000000
1283333333205: Event_87: system.cpu progress event, total committed:52799119, progress insts committed: 0, IPC: 00000000
1286666666538: Event_87: system.cpu progress event, total committed:52799119, progress insts committed: 0, IPC: 00000000
1289999999871: Event_87: system.cpu progress event, total committed:52799119, progress insts committed: 0, IPC: 00000000
1293333333204: Event_87: system.cpu progress event, total committed:52799119, progress insts committed: 0, IPC: 00000000
1296666666537: Event_87: system.cpu progress event, total committed:52799119, progress insts committed: 0, IPC: 00000000
1299999999870: Event_87: system.cpu progress event, total committed:52799119, progress insts committed: 0, IPC: 00000000
1303333333203: Event_87: system.cpu progress event, total committed:52799119, progress insts committed: 0, IPC: 00000000
1306666666536: Event_87: system.cpu progress event, total committed:52799119, progress insts committed: 0, IPC: 00000000
1309999999869: Event_87: system.cpu progress event, total committed:52799119, progress insts committed: 0, IPC: 00000000
1313333333202: Event_87: system.cpu progress event, total committed:52799119, progress insts committed: 0, IPC: 00000000
1316666666535: Event_87: system.cpu progress event, total committed:52799119, progress insts committed: 0, IPC: 00000000
1319999999868: Event_87: system.cpu progress event, total committed:52799119, progress insts committed: 0, IPC: 00000000
1323333333201: Event_87: system.cpu progress event, total committed:52799119, progress insts committed: 0, IPC: 00000000
1326666666534: Event_87: system.cpu progress event, total committed:52799119, progress insts committed: 0, IPC: 00000000
1329999999867: Event_87: system.cpu progress event, total committed:52799119, progress insts committed: 0, IPC: 00000000
1333333333200: Event_87: system.cpu progress event, total committed:52799119, progress insts committed: 0, IPC: 00000000
1336666666533: Event_87: system.cpu progress event, total committed:52799119, progress insts committed: 0, IPC: 00000000
1339999999866: Event_87: system.cpu progress event, total committed:52799119, progress insts committed: 0, IPC: 00000000
1343333333199: Event_87: system.cpu progress event, total committed:52799119, progress insts committed: 0, IPC: 00000000
1346666666532: Event_87: system.cpu progress event, total committed:52799119, progress insts committed: 0, IPC: 00000000
1349999999865: Event_87: system.cpu progress event, total committed:52799119, progress insts committed: 0, IPC: 00000000
1353333333198: Event_87: system.cpu progress event, total committed:52799119, progress insts committed: 0, IPC: 00000000
1356666666531: Event_87: system.cpu progress event, total committed:52799119, progress insts committed: 0, IPC: 00000000
1359999999864: Event_87: system.cpu progress event, total committed:52799119, progress insts committed: 0, IPC: 00000000
1363333333197: Event_87: system.cpu progress event, total committed:52799119, progress insts committed: 0, IPC: 00000000
1366666666530: Event_87: system.cpu progress event, total committed:52799119, progress insts committed: 0, IPC: 00000000
1369999999863: Event_87: system.cpu progress event, total committed:52799119, progress insts committed: 0, IPC: 00000000
1373333333196: Event_87: system.cpu progress event, total committed:52799119, progress insts committed: 0, IPC: 00000000
1376666666529: Event_87: system.cpu progress event, total committed:52799119, progress insts committed: 0, IPC: 00000000
1379999999862: Event_87: system.cpu progress event, total committed:52799119, progress insts committed: 0, IPC: 00000000
1383333333195: Event_87: system.cpu progress event, total committed:52799119, progress insts committed: 0, IPC: 00000000
1386666666528: Event_87: system.cpu progress event, total committed:52799119, progress insts committed: 0, IPC: 00000000
1389999999861: Event_87: system.cpu progress event, total committed:52799119, progress insts committed: 0, IPC: 00000000
1393333333194: Event_87: system.cpu progress event, total committed:52799119, progress insts committed: 0, IPC: 00000000
1396666666527: Event_87: system.cpu progress event, total committed:52799119, progress insts committed: 0, IPC: 00000000
1399999999860: Event_87: system.cpu progress event, total committed:52799119, progress insts committed: 0, IPC: 00000000
1403333333193: Event_87: system.cpu progress event, total committed:52799119, progress insts committed: 0, IPC: 00000000
1406666666526: Event_87: system.cpu progress event, total committed:52799119, progress insts committed: 0, IPC: 00000000
1409999999859: Event_87: system.cpu progress event, total committed:52799119, progress insts committed: 0, IPC: 00000000
1413333333192: Event_87: system.cpu progress event, total committed:52799119, progress insts committed: 0, IPC: 00000000
1416666666525: Event_87: system.cpu progress event, total committed:52799119, progress insts committed: 0, IPC: 00000000
1419999999858: Event_87: system.cpu progress event, total committed:52799119, progress insts committed: 0, IPC: 00000000
1423333333191: Event_87: system.cpu progress event, total committed:52799119, progress insts committed: 0, IPC: 00000000
1426666666524: Event_87: system.cpu progress event, total committed:52799119, progress insts committed: 0, IPC: 00000000
1429999999857: Event_87: system.cpu progress event, total committed:52799119, progress insts committed: 0, IPC: 00000000
1433333333190: Event_87: system.cpu progress event, total committed:52799119, progress insts committed: 0, IPC: 00000000
1436666666523: Event_87: system.cpu progress event, total committed:52799119, progress insts committed: 0, IPC: 00000000
1439999999856: Event_87: system.cpu progress event, total committed:52799119, progress insts committed: 0, IPC: 00000000
1443333333189: Event_87: system.cpu progress event, total committed:52799119, progress insts committed: 0, IPC: 00000000
1446666666522: Event_87: system.cpu progress event, total committed:52799119, progress insts committed: 0, IPC: 00000000
1449999999855: Event_87: system.cpu progress event, total committed:52799119, progress insts committed: 0, IPC: 00000000
1453333333188: Event_87: system.cpu progress event, total committed:52799119, progress insts committed: 0, IPC: 00000000
1456666666521: Event_87: system.cpu progress event, total committed:52799119, progress insts committed: 0, IPC: 00000000
1459999999854: Event_87: system.cpu progress event, total committed:52799119, progress insts committed: 0, IPC: 00000000
1463333333187: Event_87: system.cpu progress event, total committed:52799119, progress insts committed: 0, IPC: 00000000
1466666666520: Event_87: system.cpu progress event, total committed:52799119, progress insts committed: 0, IPC: 00000000
1469999999853: Event_87: system.cpu progress event, total committed:52799119, progress insts committed: 0, IPC: 00000000
1473333333186: Event_87: system.cpu progress event, total committed:52799119, progress insts committed: 0, IPC: 00000000
1476666666519: Event_87: system.cpu progress event, total committed:52799119, progress insts committed: 0, IPC: 00000000
1479999999852: Event_87: system.cpu progress event, total committed:52799119, progress insts committed: 0, IPC: 00000000
1483333333185: Event_87: system.cpu progress event, total committed:52799119, progress insts committed: 0, IPC: 00000000
1486666666518: Event_87: system.cpu progress event, total committed:52799119, progress insts committed: 0, IPC: 00000000
1489999999851: Event_87: system.cpu progress event, total committed:52799119, progress insts committed: 0, IPC: 00000000
1493333333184: Event_87: system.cpu progress event, total committed:52799119, progress insts committed: 0, IPC: 00000000
1496666666517: Event_87: system.cpu progress event, total committed:52799119, progress insts committed: 0, IPC: 00000000
1499999999850: Event_87: system.cpu progress event, total committed:52799119, progress insts committed: 0, IPC: 00000000
1503333333183: Event_87: system.cpu progress event, total committed:52799119, progress insts committed: 0, IPC: 00000000
1506666666516: Event_87: system.cpu progress event, total committed:52799119, progress insts committed: 0, IPC: 00000000
1509999999849: Event_87: system.cpu progress event, total committed:52799119, progress insts committed: 0, IPC: 00000000
1513333333182: Event_87: system.cpu progress event, total committed:52799119, progress insts committed: 0, IPC: 00000000
1516666666515: Event_87: system.cpu progress event, total committed:52799119, progress insts committed: 0, IPC: 00000000
1519999999848: Event_87: system.cpu progress event, total committed:52799119, progress insts committed: 0, IPC: 00000000
1523333333181: Event_87: system.cpu progress event, total committed:52799119, progress insts committed: 0, IPC: 00000000
1526666666514: Event_87: system.cpu progress event, total committed:52799119, progress insts committed: 0, IPC: 00000000
1529999999847: Event_87: system.cpu progress event, total committed:52799119, progress insts committed: 0, IPC: 00000000
1533333333180: Event_87: system.cpu progress event, total committed:52799119, progress insts committed: 0, IPC: 00000000
1536666666513: Event_87: system.cpu progress event, total committed:52799119, progress insts committed: 0, IPC: 00000000
1539999999846: Event_87: system.cpu progress event, total committed:52799119, progress insts committed: 0, IPC: 00000000
1543333333179: Event_87: system.cpu progress event, total committed:52799119, progress insts committed: 0, IPC: 00000000
1546666666512: Event_87: system.cpu progress event, total committed:52799119, progress insts committed: 0, IPC: 00000000
1549999999845: Event_87: system.cpu progress event, total committed:52799119, progress insts committed: 0, IPC: 00000000
1553333333178: Event_87: system.cpu progress event, total committed:52799119, progress insts committed: 0, IPC: 00000000
1556666666511: Event_87: system.cpu progress event, total committed:52799119, progress insts committed: 0, IPC: 00000000
1559999999844: Event_87: system.cpu progress event, total committed:52799119, progress insts committed: 0, IPC: 00000000
1563333333177: Event_87: system.cpu progress event, total committed:52799119, progress insts committed: 0, IPC: 00000000
1566666666510: Event_87: system.cpu progress event, total committed:52799119, progress insts committed: 0, IPC: 00000000
1569999999843: Event_87: system.cpu progress event, total committed:52799119, progress insts committed: 0, IPC: 00000000
1573333333176: Event_87: system.cpu progress event, total committed:52799119, progress insts committed: 0, IPC: 00000000
1576666666509: Event_87: system.cpu progress event, total committed:52799119, progress insts committed: 0, IPC: 00000000
1579999999842: Event_87: system.cpu progress event, total committed:52799119, progress insts committed: 0, IPC: 00000000
1583333333175: Event_87: system.cpu progress event, total committed:52799119, progress insts committed: 0, IPC: 00000000
1586666666508: Event_87: system.cpu progress event, total committed:52799119, progress insts committed: 0, IPC: 00000000
1589999999841: Event_87: system.cpu progress event, total committed:52799119, progress insts committed: 0, IPC: 00000000
1593333333174: Event_87: system.cpu progress event, total committed:52799119, progress insts committed: 0, IPC: 00000000
1596666666507: Event_87: system.cpu progress event, total committed:52799119, progress insts committed: 0, IPC: 00000000
1599999999840: Event_87: system.cpu progress event, total committed:52799119, progress insts committed: 0, IPC: 00000000
1603333333173: Event_87: system.cpu progress event, total committed:52799119, progress insts committed: 0, IPC: 00000000
1606666666506: Event_87: system.cpu progress event, total committed:52799119, progress insts committed: 0, IPC: 00000000
1609999999839: Event_87: system.cpu progress event, total committed:52799119, progress insts committed: 0, IPC: 00000000
1613333333172: Event_87: system.cpu progress event, total committed:52799119, progress insts committed: 0, IPC: 00000000
1616666666505: Event_87: system.cpu progress event, total committed:52799119, progress insts committed: 0, IPC: 00000000
1619999999838: Event_87: system.cpu progress event, total committed:52799119, progress insts committed: 0, IPC: 00000000
1623333333171: Event_87: system.cpu progress event, total committed:52799119, progress insts committed: 0, IPC: 00000000
1626666666504: Event_87: system.cpu progress event, total committed:52799119, progress insts committed: 0, IPC: 00000000
1629999999837: Event_87: system.cpu progress event, total committed:52799119, progress insts committed: 0, IPC: 00000000
1633333333170: Event_87: system.cpu progress event, total committed:52799119, progress insts committed: 0, IPC: 00000000
1636666666503: Event_87: system.cpu progress event, total committed:52799119, progress insts committed: 0, IPC: 00000000
1639999999836: Event_87: system.cpu progress event, total committed:52799119, progress insts committed: 0, IPC: 00000000
1643333333169: Event_87: system.cpu progress event, total committed:52799119, progress insts committed: 0, IPC: 00000000
1646666666502: Event_87: system.cpu progress event, total committed:52799119, progress insts committed: 0, IPC: 00000000
1649999999835: Event_87: system.cpu progress event, total committed:52799119, progress insts committed: 0, IPC: 00000000
1653333333168: Event_87: system.cpu progress event, total committed:52799119, progress insts committed: 0, IPC: 00000000
1656666666501: Event_87: system.cpu progress event, total committed:52799119, progress insts committed: 0, IPC: 00000000
1659999999834: Event_87: system.cpu progress event, total committed:52799119, progress insts committed: 0, IPC: 00000000
1663333333167: Event_87: system.cpu progress event, total committed:52799119, progress insts committed: 0, IPC: 00000000
1666666666500: Event_87: system.cpu progress event, total committed:52799119, progress insts committed: 0, IPC: 00000000
1669999999833: Event_87: system.cpu progress event, total committed:52799119, progress insts committed: 0, IPC: 00000000
1673333333166: Event_87: system.cpu progress event, total committed:52799119, progress insts committed: 0, IPC: 00000000
1676666666499: Event_87: system.cpu progress event, total committed:52799119, progress insts committed: 0, IPC: 00000000
1679999999832: Event_87: system.cpu progress event, total committed:52799119, progress insts committed: 0, IPC: 00000000
1683333333165: Event_87: system.cpu progress event, total committed:52799119, progress insts committed: 0, IPC: 00000000
1686666666498: Event_87: system.cpu progress event, total committed:52799119, progress insts committed: 0, IPC: 00000000
1689999999831: Event_87: system.cpu progress event, total committed:52799119, progress insts committed: 0, IPC: 00000000
1693333333164: Event_87: system.cpu progress event, total committed:52799119, progress insts committed: 0, IPC: 00000000
1696666666497: Event_87: system.cpu progress event, total committed:52799119, progress insts committed: 0, IPC: 00000000
1699999999830: Event_87: system.cpu progress event, total committed:52799119, progress insts committed: 0, IPC: 00000000
1703333333163: Event_87: system.cpu progress event, total committed:52799119, progress insts committed: 0, IPC: 00000000
1706666666496: Event_87: system.cpu progress event, total committed:52799119, progress insts committed: 0, IPC: 00000000
1709999999829: Event_87: system.cpu progress event, total committed:52799119, progress insts committed: 0, IPC: 00000000
1713333333162: Event_87: system.cpu progress event, total committed:52799119, progress insts committed: 0, IPC: 00000000
1716666666495: Event_87: system.cpu progress event, total committed:52799119, progress insts committed: 0, IPC: 00000000
1719999999828: Event_87: system.cpu progress event, total committed:52799119, progress insts committed: 0, IPC: 00000000
1723333333161: Event_87: system.cpu progress event, total committed:52799119, progress insts committed: 0, IPC: 00000000
1726666666494: Event_87: system.cpu progress event, total committed:52799119, progress insts committed: 0, IPC: 00000000
1729999999827: Event_87: system.cpu progress event, total committed:52799119, progress insts committed: 0, IPC: 00000000
1733333333160: Event_87: system.cpu progress event, total committed:52799119, progress insts committed: 0, IPC: 00000000
1736666666493: Event_87: system.cpu progress event, total committed:52799119, progress insts committed: 0, IPC: 00000000
1739999999826: Event_87: system.cpu progress event, total committed:52799119, progress insts committed: 0, IPC: 00000000
1743333333159: Event_87: system.cpu progress event, total committed:52799119, progress insts committed: 0, IPC: 00000000
1746666666492: Event_87: system.cpu progress event, total committed:52799119, progress insts committed: 0, IPC: 00000000
1749999999825: Event_87: system.cpu progress event, total committed:52799119, progress insts committed: 0, IPC: 00000000
1753333333158: Event_87: system.cpu progress event, total committed:52799119, progress insts committed: 0, IPC: 00000000
1756666666491: Event_87: system.cpu progress event, total committed:52799119, progress insts committed: 0, IPC: 00000000
1759999999824: Event_87: system.cpu progress event, total committed:52799119, progress insts committed: 0, IPC: 00000000
1763333333157: Event_87: system.cpu progress event, total committed:52799119, progress insts committed: 0, IPC: 00000000
1766666666490: Event_87: system.cpu progress event, total committed:52799119, progress insts committed: 0, IPC: 00000000
1769999999823: Event_87: system.cpu progress event, total committed:52799119, progress insts committed: 0, IPC: 00000000
1773333333156: Event_87: system.cpu progress event, total committed:52799119, progress insts committed: 0, IPC: 00000000
1776666666489: Event_87: system.cpu progress event, total committed:52799119, progress insts committed: 0, IPC: 00000000
1779999999822: Event_87: system.cpu progress event, total committed:52799119, progress insts committed: 0, IPC: 00000000
1783333333155: Event_87: system.cpu progress event, total committed:52799119, progress insts committed: 0, IPC: 00000000
1786666666488: Event_87: system.cpu progress event, total committed:52799119, progress insts committed: 0, IPC: 00000000
1789999999821: Event_87: system.cpu progress event, total committed:52799119, progress insts committed: 0, IPC: 00000000
1793333333154: Event_87: system.cpu progress event, total committed:52799119, progress insts committed: 0, IPC: 00000000
1796666666487: Event_87: system.cpu progress event, total committed:52799119, progress insts committed: 0, IPC: 00000000
1799999999820: Event_87: system.cpu progress event, total committed:52799119, progress insts committed: 0, IPC: 00000000
1803333333153: Event_87: system.cpu progress event, total committed:52799119, progress insts committed: 0, IPC: 00000000
1806666666486: Event_87: system.cpu progress event, total committed:52799119, progress insts committed: 0, IPC: 00000000
1809999999819: Event_87: system.cpu progress event, total committed:52799119, progress insts committed: 0, IPC: 00000000
1813333333152: Event_87: system.cpu progress event, total committed:52799119, progress insts committed: 0, IPC: 00000000
1816666666485: Event_87: system.cpu progress event, total committed:52799119, progress insts committed: 0, IPC: 00000000
1819999999818: Event_87: system.cpu progress event, total committed:52799119, progress insts committed: 0, IPC: 00000000
1823333333151: Event_87: system.cpu progress event, total committed:52799119, progress insts committed: 0, IPC: 00000000
1826666666484: Event_87: system.cpu progress event, total committed:52799119, progress insts committed: 0, IPC: 00000000
1829999999817: Event_87: system.cpu progress event, total committed:52799119, progress insts committed: 0, IPC: 00000000
1833333333150: Event_87: system.cpu progress event, total committed:52799119, progress insts committed: 0, IPC: 00000000
1836666666483: Event_87: system.cpu progress event, total committed:52799119, progress insts committed: 0, IPC: 00000000
1839999999816: Event_87: system.cpu progress event, total committed:52799119, progress insts committed: 0, IPC: 00000000
1843333333149: Event_87: system.cpu progress event, total committed:52799119, progress insts committed: 0, IPC: 00000000
1846666666482: Event_87: system.cpu progress event, total committed:52799119, progress insts committed: 0, IPC: 00000000
1849999999815: Event_87: system.cpu progress event, total committed:52799119, progress insts committed: 0, IPC: 00000000
1853333333148: Event_87: system.cpu progress event, total committed:52799119, progress insts committed: 0, IPC: 00000000
1856666666481: Event_87: system.cpu progress event, total committed:52799119, progress insts committed: 0, IPC: 00000000
1859999999814: Event_87: system.cpu progress event, total committed:52799119, progress insts committed: 0, IPC: 00000000
1863333333147: Event_87: system.cpu progress event, total committed:52799119, progress insts committed: 0, IPC: 00000000
1866666666480: Event_87: system.cpu progress event, total committed:52799119, progress insts committed: 0, IPC: 00000000
1869999999813: Event_87: system.cpu progress event, total committed:52799119, progress insts committed: 0, IPC: 00000000
1873333333146: Event_87: system.cpu progress event, total committed:52799119, progress insts committed: 0, IPC: 00000000
1876666666479: Event_87: system.cpu progress event, total committed:52799119, progress insts committed: 0, IPC: 00000000
1879999999812: Event_87: system.cpu progress event, total committed:52799119, progress insts committed: 0, IPC: 00000000
1883333333145: Event_87: system.cpu progress event, total committed:52799119, progress insts committed: 0, IPC: 00000000
1886666666478: Event_87: system.cpu progress event, total committed:52799119, progress insts committed: 0, IPC: 00000000
1889999999811: Event_87: system.cpu progress event, total committed:52799119, progress insts committed: 0, IPC: 00000000
1893333333144: Event_87: system.cpu progress event, total committed:52799119, progress insts committed: 0, IPC: 00000000
1896666666477: Event_87: system.cpu progress event, total committed:52799119, progress insts committed: 0, IPC: 00000000
1899999999810: Event_87: system.cpu progress event, total committed:52799119, progress insts committed: 0, IPC: 00000000
1903333333143: Event_87: system.cpu progress event, total committed:52799119, progress insts committed: 0, IPC: 00000000
1906666666476: Event_87: system.cpu progress event, total committed:52799119, progress insts committed: 0, IPC: 00000000
1909999999809: Event_87: system.cpu progress event, total committed:52799119, progress insts committed: 0, IPC: 00000000
1913333333142: Event_87: system.cpu progress event, total committed:52799119, progress insts committed: 0, IPC: 00000000
1916666666475: Event_87: system.cpu progress event, total committed:52799119, progress insts committed: 0, IPC: 00000000
1919999999808: Event_87: system.cpu progress event, total committed:52799119, progress insts committed: 0, IPC: 00000000
1923333333141: Event_87: system.cpu progress event, total committed:52799119, progress insts committed: 0, IPC: 00000000
1926666666474: Event_87: system.cpu progress event, total committed:52799119, progress insts committed: 0, IPC: 00000000
1929999999807: Event_87: system.cpu progress event, total committed:52799119, progress insts committed: 0, IPC: 00000000
1933333333140: Event_87: system.cpu progress event, total committed:52799119, progress insts committed: 0, IPC: 00000000
1936666666473: Event_87: system.cpu progress event, total committed:52799119, progress insts committed: 0, IPC: 00000000
1939999999806: Event_87: system.cpu progress event, total committed:52799119, progress insts committed: 0, IPC: 00000000
1943333333139: Event_87: system.cpu progress event, total committed:52799119, progress insts committed: 0, IPC: 00000000
1946666666472: Event_87: system.cpu progress event, total committed:52799119, progress insts committed: 0, IPC: 00000000
1949999999805: Event_87: system.cpu progress event, total committed:52799119, progress insts committed: 0, IPC: 00000000
1953333333138: Event_87: system.cpu progress event, total committed:52799119, progress insts committed: 0, IPC: 00000000
1956666666471: Event_87: system.cpu progress event, total committed:52799119, progress insts committed: 0, IPC: 00000000
1959999999804: Event_87: system.cpu progress event, total committed:52799119, progress insts committed: 0, IPC: 00000000
1963333333137: Event_87: system.cpu progress event, total committed:52799119, progress insts committed: 0, IPC: 00000000
1966666666470: Event_87: system.cpu progress event, total committed:52799119, progress insts committed: 0, IPC: 00000000
1969999999803: Event_87: system.cpu progress event, total committed:52799119, progress insts committed: 0, IPC: 00000000
1973333333136: Event_87: system.cpu progress event, total committed:52799119, progress insts committed: 0, IPC: 00000000
1976666666469: Event_87: system.cpu progress event, total committed:52799119, progress insts committed: 0, IPC: 00000000
1979999999802: Event_87: system.cpu progress event, total committed:52799119, progress insts committed: 0, IPC: 00000000
1983333333135: Event_87: system.cpu progress event, total committed:52799119, progress insts committed: 0, IPC: 00000000
1986666666468: Event_87: system.cpu progress event, total committed:52799119, progress insts committed: 0, IPC: 00000000
1989999999801: Event_87: system.cpu progress event, total committed:52799119, progress insts committed: 0, IPC: 00000000
1993333333134: Event_87: system.cpu progress event, total committed:52799119, progress insts committed: 0, IPC: 00000000
1996666666467: Event_87: system.cpu progress event, total committed:52799119, progress insts committed: 0, IPC: 00000000
1999999999800: Event_87: system.cpu progress event, total committed:52799119, progress insts committed: 0, IPC: 00000000
2003333333133: Event_87: system.cpu progress event, total committed:52799119, progress insts committed: 0, IPC: 00000000
2006666666466: Event_87: system.cpu progress event, total committed:52799119, progress insts committed: 0, IPC: 00000000
2009999999799: Event_87: system.cpu progress event, total committed:52799119, progress insts committed: 0, IPC: 00000000
2013333333132: Event_87: system.cpu progress event, total committed:52799119, progress insts committed: 0, IPC: 00000000
2016666666465: Event_87: system.cpu progress event, total committed:52799119, progress insts committed: 0, IPC: 00000000
2019999999798: Event_87: system.cpu progress event, total committed:52799119, progress insts committed: 0, IPC: 00000000
2023333333131: Event_87: system.cpu progress event, total committed:52799119, progress insts committed: 0, IPC: 00000000
2026666666464: Event_87: system.cpu progress event, total committed:52799119, progress insts committed: 0, IPC: 00000000
2029999999797: Event_87: system.cpu progress event, total committed:52799119, progress insts committed: 0, IPC: 00000000
2033333333130: Event_87: system.cpu progress event, total committed:52799119, progress insts committed: 0, IPC: 00000000
2036666666463: Event_87: system.cpu progress event, total committed:52799119, progress insts committed: 0, IPC: 00000000
2039999999796: Event_87: system.cpu progress event, total committed:52799119, progress insts committed: 0, IPC: 00000000
2043333333129: Event_87: system.cpu progress event, total committed:52799119, progress insts committed: 0, IPC: 00000000
2046666666462: Event_87: system.cpu progress event, total committed:52799119, progress insts committed: 0, IPC: 00000000
2049999999795: Event_87: system.cpu progress event, total committed:52799119, progress insts committed: 0, IPC: 00000000
2053333333128: Event_87: system.cpu progress event, total committed:52799119, progress insts committed: 0, IPC: 00000000
2056666666461: Event_87: system.cpu progress event, total committed:52799119, progress insts committed: 0, IPC: 00000000
2059999999794: Event_87: system.cpu progress event, total committed:52799119, progress insts committed: 0, IPC: 00000000
2063333333127: Event_87: system.cpu progress event, total committed:52799119, progress insts committed: 0, IPC: 00000000
2066666666460: Event_87: system.cpu progress event, total committed:52799119, progress insts committed: 0, IPC: 00000000
2069999999793: Event_87: system.cpu progress event, total committed:52799119, progress insts committed: 0, IPC: 00000000
2073333333126: Event_87: system.cpu progress event, total committed:52799119, progress insts committed: 0, IPC: 00000000
2076666666459: Event_87: system.cpu progress event, total committed:52799119, progress insts committed: 0, IPC: 00000000
2079999999792: Event_87: system.cpu progress event, total committed:52799119, progress insts committed: 0, IPC: 00000000
2083333333125: Event_87: system.cpu progress event, total committed:52799119, progress insts committed: 0, IPC: 00000000
2086666666458: Event_87: system.cpu progress event, total committed:52799119, progress insts committed: 0, IPC: 00000000
2089999999791: Event_87: system.cpu progress event, total committed:52799119, progress insts committed: 0, IPC: 00000000
2093333333124: Event_87: system.cpu progress event, total committed:52799119, progress insts committed: 0, IPC: 00000000
2096666666457: Event_87: system.cpu progress event, total committed:52799119, progress insts committed: 0, IPC: 00000000
2099999999790: Event_87: system.cpu progress event, total committed:52799119, progress insts committed: 0, IPC: 00000000
2103333333123: Event_87: system.cpu progress event, total committed:52799119, progress insts committed: 0, IPC: 00000000
2106666666456: Event_87: system.cpu progress event, total committed:52799119, progress insts committed: 0, IPC: 00000000
2109999999789: Event_87: system.cpu progress event, total committed:52799119, progress insts committed: 0, IPC: 00000000
2113333333122: Event_87: system.cpu progress event, total committed:52799119, progress insts committed: 0, IPC: 00000000
2116666666455: Event_87: system.cpu progress event, total committed:52799119, progress insts committed: 0, IPC: 00000000
2119999999788: Event_87: system.cpu progress event, total committed:52799119, progress insts committed: 0, IPC: 00000000
2123333333121: Event_87: system.cpu progress event, total committed:52799119, progress insts committed: 0, IPC: 00000000
2126666666454: Event_87: system.cpu progress event, total committed:52799119, progress insts committed: 0, IPC: 00000000
2129999999787: Event_87: system.cpu progress event, total committed:52799119, progress insts committed: 0, IPC: 00000000
2133333333120: Event_87: system.cpu progress event, total committed:52799119, progress insts committed: 0, IPC: 00000000
2136666666453: Event_87: system.cpu progress event, total committed:52799119, progress insts committed: 0, IPC: 00000000
2139999999786: Event_87: system.cpu progress event, total committed:52799119, progress insts committed: 0, IPC: 00000000
2143333333119: Event_87: system.cpu progress event, total committed:52799119, progress insts committed: 0, IPC: 00000000
2146666666452: Event_87: system.cpu progress event, total committed:52799119, progress insts committed: 0, IPC: 00000000
2149999999785: Event_87: system.cpu progress event, total committed:52799119, progress insts committed: 0, IPC: 00000000
2153333333118: Event_87: system.cpu progress event, total committed:52799119, progress insts committed: 0, IPC: 00000000
2156666666451: Event_87: system.cpu progress event, total committed:52799119, progress insts committed: 0, IPC: 00000000
2159999999784: Event_87: system.cpu progress event, total committed:52799119, progress insts committed: 0, IPC: 00000000
2163333333117: Event_87: system.cpu progress event, total committed:52799119, progress insts committed: 0, IPC: 00000000
[...]
4383333332895: Event_87: system.cpu progress event, total committed:52799119, progress insts committed: 0, IPC: 00000000
4386666666228: Event_87: system.cpu progress event, total committed:52799119, progress insts committed: 0, IPC: 00000000
4389999999561: Event_87: system.cpu progress event, total committed:52799119, progress insts committed: 0, IPC: 00000000
4393333332894: Event_87: system.cpu progress event, total committed:52799119, progress insts committed: 0, IPC: 00000000
4396666666227: Event_87: system.cpu progress event, total committed:52799119, progress insts committed: 0, IPC: 00000000
4399999999560: Event_87: system.cpu progress event, total committed:52799119, progress insts committed: 0, IPC: 00000000
4403333332893: Event_87: system.cpu progress event, total committed:52799119, progress insts committed: 0, IPC: 00000000
4406666666226: Event_87: system.cpu progress event, total committed:52799119, progress insts committed: 0, IPC: 00000000
4409999999559: Event_87: system.cpu progress event, total committed:52799119, progress insts committed: 0, IPC: 00000000
4413333332892: Event_87: system.cpu progress event, total committed:52799119, progress insts committed: 0, IPC: 00000000
4416666666225: Event_87: system.cpu progress event, total committed:52799119, progress insts committed: 0, IPC: 00000000
4419999999558: Event_87: system.cpu progress event, total committed:52799119, progress insts committed: 0, IPC: 00000000
4423333332891: Event_87: system.cpu progress event, total committed:52799119, progress insts committed: 0, IPC: 00000000
4426666666224: Event_87: system.cpu progress event, total committed:52799119, progress insts committed: 0, IPC: 00000000
4429999999557: Event_87: system.cpu progress event, total committed:52799119, progress insts committed: 0, IPC: 00000000
4433333332890: Event_87: system.cpu progress event, total committed:52799119, progress insts committed: 0, IPC: 00000000
4436666666223: Event_87: system.cpu progress event, total committed:52799119, progress insts committed: 0, IPC: 00000000
4439999999556: Event_87: system.cpu progress event, total committed:52799119, progress insts committed: 0, IPC: 00000000
4443333332889: Event_87: system.cpu progress event, total committed:52799119, progress insts committed: 0, IPC: 00000000
4446666666222: Event_87: system.cpu progress event, total committed:52799119, progress insts committed: 0, IPC: 00000000
4449999999555: Event_87: system.cpu progress event, total committed:52799119, progress insts committed: 0, IPC: 00000000
4453333332888: Event_87: system.cpu progress event, total committed:52799119, progress insts committed: 0, IPC: 00000000
4456666666221: Event_87: system.cpu progress event, total committed:52799119, progress insts committed: 0, IPC: 00000000
4459999999554: Event_87: system.cpu progress event, total committed:52799119, progress insts committed: 0, IPC: 00000000
4463333332887: Event_87: system.cpu progress event, total committed:52799119, progress insts committed: 0, IPC: 00000000
4466666666220: Event_87: system.cpu progress event, total committed:52799119, progress insts committed: 0, IPC: 00000000
4469999999553: Event_87: system.cpu progress event, total committed:52799119, progress insts committed: 0, IPC: 00000000
4473333332886: Event_87: system.cpu progress event, total committed:52799119, progress insts committed: 0, IPC: 00000000
4476666666219: Event_87: system.cpu progress event, total committed:52799119, progress insts committed: 0, IPC: 00000000
4479999999552: Event_87: system.cpu progress event, total committed:52799119, progress insts committed: 0, IPC: 00000000
4483333332885: Event_87: system.cpu progress event, total committed:52799119, progress insts committed: 0, IPC: 00000000
4486666666218: Event_87: system.cpu progress event, total committed:52799119, progress insts committed: 0, IPC: 00000000
4489999999551: Event_87: system.cpu progress event, total committed:52799119, progress insts committed: 0, IPC: 00000000
4493333332884: Event_87: system.cpu progress event, total committed:52799119, progress insts committed: 0, IPC: 00000000
4496666666217: Event_87: system.cpu progress event, total committed:52799119, progress insts committed: 0, IPC: 00000000
4499999999550: Event_87: system.cpu progress event, total committed:52799119, progress insts committed: 0, IPC: 00000000
4503333332883: Event_87: system.cpu progress event, total committed:52799119, progress insts committed: 0, IPC: 00000000
4506666666216: Event_87: system.cpu progress event, total committed:52799119, progress insts committed: 0, IPC: 00000000
4509999999549: Event_87: system.cpu progress event, total committed:52799119, progress insts committed: 0, IPC: 00000000
4513333332882: Event_87: system.cpu progress event, total committed:52799119, progress insts committed: 0, IPC: 00000000
4516666666215: Event_87: system.cpu progress event, total committed:52799119, progress insts committed: 0, IPC: 00000000
4519999999548: Event_87: system.cpu progress event, total committed:52799119, progress insts committed: 0, IPC: 00000000
4523333332881: Event_87: system.cpu progress event, total committed:52799119, progress insts committed: 0, IPC: 00000000
4526666666214: Event_87: system.cpu progress event, total committed:52799119, progress insts committed: 0, IPC: 00000000
4529999999547: Event_87: system.cpu progress event, total committed:52799119, progress insts committed: 0, IPC: 00000000
4533333332880: Event_87: system.cpu progress event, total committed:52799119, progress insts committed: 0, IPC: 00000000
4536666666213: Event_87: system.cpu progress event, total committed:52799119, progress insts committed: 0, IPC: 00000000
4539999999546: Event_87: system.cpu progress event, total committed:52799119, progress insts committed: 0, IPC: 00000000
4543333332879: Event_87: system.cpu progress event, total committed:52799119, progress insts committed: 0, IPC: 00000000
4546666666212: Event_87: system.cpu progress event, total committed:52799119, progress insts committed: 0, IPC: 00000000
4549999999545: Event_87: system.cpu progress event, total committed:52799119, progress insts committed: 0, IPC: 00000000
4553333332878: Event_87: system.cpu progress event, total committed:52799119, progress insts committed: 0, IPC: 00000000
4556666666211: Event_87: system.cpu progress event, total committed:52799119, progress insts committed: 0, IPC: 00000000
4559999999544: Event_87: system.cpu progress event, total committed:52799119, progress insts committed: 0, IPC: 00000000
4563333332877: Event_87: system.cpu progress event, total committed:52799119, progress insts committed: 0, IPC: 00000000
4566666666210: Event_87: system.cpu progress event, total committed:52799119, progress insts committed: 0, IPC: 00000000
4569999999543: Event_87: system.cpu progress event, total committed:52799119, progress insts committed: 0, IPC: 00000000
4573333332876: Event_87: system.cpu progress event, total committed:52799119, progress insts committed: 0, IPC: 00000000
4576666666209: Event_87: system.cpu progress event, total committed:52799119, progress insts committed: 0, IPC: 00000000
4579999999542: Event_87: system.cpu progress event, total committed:52799119, progress insts committed: 0, IPC: 00000000
4583333332875: Event_87: system.cpu progress event, total committed:52799119, progress insts committed: 0, IPC: 00000000
4586666666208: Event_87: system.cpu progress event, total committed:52799119, progress insts committed: 0, IPC: 00000000
4589999999541: Event_87: system.cpu progress event, total committed:52799119, progress insts committed: 0, IPC: 00000000
4593333332874: Event_87: system.cpu progress event, total committed:52799119, progress insts committed: 0, IPC: 00000000
4596666666207: Event_87: system.cpu progress event, total committed:52799119, progress insts committed: 0, IPC: 00000000
4599999999540: Event_87: system.cpu progress event, total committed:52799119, progress insts committed: 0, IPC: 00000000
4603333332873: Event_87: system.cpu progress event, total committed:52799119, progress insts committed: 0, IPC: 00000000
4606666666206: Event_87: system.cpu progress event, total committed:52799119, progress insts committed: 0, IPC: 00000000
4609999999539: Event_87: system.cpu progress event, total committed:52799119, progress insts committed: 0, IPC: 00000000
4613333332872: Event_87: system.cpu progress event, total committed:52799119, progress insts committed: 0, IPC: 00000000
4616666666205: Event_87: system.cpu progress event, total committed:52799119, progress insts committed: 0, IPC: 00000000
4619999999538: Event_87: system.cpu progress event, total committed:52799119, progress insts committed: 0, IPC: 00000000
4623333332871: Event_87: system.cpu progress event, total committed:52799119, progress insts committed: 0, IPC: 00000000
4626666666204: Event_87: system.cpu progress event, total committed:52799119, progress insts committed: 0, IPC: 00000000
4629999999537: Event_87: system.cpu progress event, total committed:52799119, progress insts committed: 0, IPC: 00000000
4633333332870: Event_87: system.cpu progress event, total committed:52799119, progress insts committed: 0, IPC: 00000000
4636666666203: Event_87: system.cpu progress event, total committed:52799119, progress insts committed: 0, IPC: 00000000
4639999999536: Event_87: system.cpu progress event, total committed:52799119, progress insts committed: 0, IPC: 00000000
4643333332869: Event_87: system.cpu progress event, total committed:52799119, progress insts committed: 0, IPC: 00000000
4646666666202: Event_87: system.cpu progress event, total committed:52799119, progress insts committed: 0, IPC: 00000000
4649999999535: Event_87: system.cpu progress event, total committed:52799119, progress insts committed: 0, IPC: 00000000
4653333332868: Event_87: system.cpu progress event, total committed:52799119, progress insts committed: 0, IPC: 00000000
4656666666201: Event_87: system.cpu progress event, total committed:52799119, progress insts committed: 0, IPC: 00000000
4659999999534: Event_87: system.cpu progress event, total committed:52799119, progress insts committed: 0, IPC: 00000000
4663333332867: Event_87: system.cpu progress event, total committed:52799119, progress insts committed: 0, IPC: 00000000
4666666666200: Event_87: system.cpu progress event, total committed:52799119, progress insts committed: 0, IPC: 00000000
4669999999533: Event_87: system.cpu progress event, total committed:52799119, progress insts committed: 0, IPC: 00000000
4673333332866: Event_87: system.cpu progress event, total committed:52799119, progress insts committed: 0, IPC: 00000000
4676666666199: Event_87: system.cpu progress event, total committed:52799119, progress insts committed: 0, IPC: 00000000
4679999999532: Event_87: system.cpu progress event, total committed:52799119, progress insts committed: 0, IPC: 00000000
4683333332865: Event_87: system.cpu progress event, total committed:52799119, progress insts committed: 0, IPC: 00000000
4686666666198: Event_87: system.cpu progress event, total committed:52799119, progress insts committed: 0, IPC: 00000000
4689999999531: Event_87: system.cpu progress event, total committed:52799119, progress insts committed: 0, IPC: 00000000
4693333332864: Event_87: system.cpu progress event, total committed:52799119, progress insts committed: 0, IPC: 00000000
4696666666197: Event_87: system.cpu progress event, total committed:52799119, progress insts committed: 0, IPC: 00000000
4699999999530: Event_87: system.cpu progress event, total committed:52799119, progress insts committed: 0, IPC: 00000000
4703333332863: Event_87: system.cpu progress event, total committed:52799119, progress insts committed: 0, IPC: 00000000
4706666666196: Event_87: system.cpu progress event, total committed:52799119, progress insts committed: 0, IPC: 00000000
4709999999529: Event_87: system.cpu progress event, total committed:52799119, progress insts committed: 0, IPC: 00000000
4713333332862: Event_87: system.cpu progress event, total committed:52799119, progress insts committed: 0, IPC: 00000000
4716666666195: Event_87: system.cpu progress event, total committed:52799119, progress insts committed: 0, IPC: 00000000
4719999999528: Event_87: system.cpu progress event, total committed:52799119, progress insts committed: 0, IPC: 00000000
4723333332861: Event_87: system.cpu progress event, total committed:52799119, progress insts committed: 0, IPC: 00000000
4726666666194: Event_87: system.cpu progress event, total committed:52799119, progress insts committed: 0, IPC: 00000000
4729999999527: Event_87: system.cpu progress event, total committed:52799119, progress insts committed: 0, IPC: 00000000
4733333332860: Event_87: system.cpu progress event, total committed:52799119, progress insts committed: 0, IPC: 00000000
4736666666193: Event_87: system.cpu progress event, total committed:52799119, progress insts committed: 0, IPC: 00000000
4739999999526: Event_87: system.cpu progress event, total committed:52799119, progress insts committed: 0, IPC: 00000000
4743333332859: Event_87: system.cpu progress event, total committed:52799119, progress insts committed: 0, IPC: 00000000
4746666666192: Event_87: system.cpu progress event, total committed:52799119, progress insts committed: 0, IPC: 00000000
4749999999525: Event_87: system.cpu progress event, total committed:52799119, progress insts committed: 0, IPC: 00000000
4753333332858: Event_87: system.cpu progress event, total committed:52799119, progress insts committed: 0, IPC: 00000000
4756666666191: Event_87: system.cpu progress event, total committed:52799119, progress insts committed: 0, IPC: 00000000
4759999999524: Event_87: system.cpu progress event, total committed:52799119, progress insts committed: 0, IPC: 00000000
4763333332857: Event_87: system.cpu progress event, total committed:52799119, progress insts committed: 0, IPC: 00000000
4766666666190: Event_87: system.cpu progress event, total committed:52799119, progress insts committed: 0, IPC: 00000000
4769999999523: Event_87: system.cpu progress event, total committed:52799119, progress insts committed: 0, IPC: 00000000
4773333332856: Event_87: system.cpu progress event, total committed:52799119, progress insts committed: 0, IPC: 00000000
4776666666189: Event_87: system.cpu progress event, total committed:52799119, progress insts committed: 0, IPC: 00000000
4779999999522: Event_87: system.cpu progress event, total committed:52799119, progress insts committed: 0, IPC: 00000000
4783333332855: Event_87: system.cpu progress event, total committed:52799119, progress insts committed: 0, IPC: 00000000
4786666666188: Event_87: system.cpu progress event, total committed:52799119, progress insts committed: 0, IPC: 00000000
4789999999521: Event_87: system.cpu progress event, total committed:52799119, progress insts committed: 0, IPC: 00000000
4793333332854: Event_87: system.cpu progress event, total committed:52799119, progress insts committed: 0, IPC: 00000000
4796666666187: Event_87: system.cpu progress event, total committed:52799119, progress insts committed: 0, IPC: 00000000
4799999999520: Event_87: system.cpu progress event, total committed:52799119, progress insts committed: 0, IPC: 00000000
4803333332853: Event_87: system.cpu progress event, total committed:52799119, progress insts committed: 0, IPC: 00000000
4806666666186: Event_87: system.cpu progress event, total committed:52799119, progress insts committed: 0, IPC: 00000000
4809999999519: Event_87: system.cpu progress event, total committed:52799119, progress insts committed: 0, IPC: 00000000
4813333332852: Event_87: system.cpu progress event, total committed:52799119, progress insts committed: 0, IPC: 00000000
4816666666185: Event_87: system.cpu progress event, total committed:52799119, progress insts committed: 0, IPC: 00000000
4819999999518: Event_87: system.cpu progress event, total committed:52799119, progress insts committed: 0, IPC: 00000000
4823333332851: Event_87: system.cpu progress event, total committed:52799119, progress insts committed: 0, IPC: 00000000
4826666666184: Event_87: system.cpu progress event, total committed:52799119, progress insts committed: 0, IPC: 00000000
4829999999517: Event_87: system.cpu progress event, total committed:52799119, progress insts committed: 0, IPC: 00000000
4833333332850: Event_87: system.cpu progress event, total committed:52799119, progress insts committed: 0, IPC: 00000000
4836666666183: Event_87: system.cpu progress event, total committed:52799119, progress insts committed: 0, IPC: 00000000
4839999999516: Event_87: system.cpu progress event, total committed:52799119, progress insts committed: 0, IPC: 00000000
4843333332849: Event_87: system.cpu progress event, total committed:52799119, progress insts committed: 0, IPC: 00000000
4846666666182: Event_87: system.cpu progress event, total committed:52799119, progress insts committed: 0, IPC: 00000000
4849999999515: Event_87: system.cpu progress event, total committed:52799119, progress insts committed: 0, IPC: 00000000
4853333332848: Event_87: system.cpu progress event, total committed:52799119, progress insts committed: 0, IPC: 00000000
4856666666181: Event_87: system.cpu progress event, total committed:52799119, progress insts committed: 0, IPC: 00000000
4859999999514: Event_87: system.cpu progress event, total committed:52799119, progress insts committed: 0, IPC: 00000000
4863333332847: Event_87: system.cpu progress event, total committed:52799119, progress insts committed: 0, IPC: 00000000
4866666666180: Event_87: system.cpu progress event, total committed:52799119, progress insts committed: 0, IPC: 00000000
4869999999513: Event_87: system.cpu progress event, total committed:52799119, progress insts committed: 0, IPC: 00000000
4873333332846: Event_87: system.cpu progress event, total committed:52799119, progress insts committed: 0, IPC: 00000000
4876666666179: Event_87: system.cpu progress event, total committed:52799119, progress insts committed: 0, IPC: 00000000
4879999999512: Event_87: system.cpu progress event, total committed:52799119, progress insts committed: 0, IPC: 00000000
4883333332845: Event_87: system.cpu progress event, total committed:52799119, progress insts committed: 0, IPC: 00000000
4886666666178: Event_87: system.cpu progress event, total committed:52799119, progress insts committed: 0, IPC: 00000000
4889999999511: Event_87: system.cpu progress event, total committed:52799119, progress insts committed: 0, IPC: 00000000
4893333332844: Event_87: system.cpu progress event, total committed:52799119, progress insts committed: 0, IPC: 00000000
4896666666177: Event_87: system.cpu progress event, total committed:52799119, progress insts committed: 0, IPC: 00000000
4899999999510: Event_87: system.cpu progress event, total committed:52799119, progress insts committed: 0, IPC: 00000000
4903333332843: Event_87: system.cpu progress event, total committed:52799119, progress insts committed: 0, IPC: 00000000
4906666666176: Event_87: system.cpu progress event, total committed:52799119, progress insts committed: 0, IPC: 00000000
4909999999509: Event_87: system.cpu progress event, total committed:52799119, progress insts committed: 0, IPC: 00000000
4913333332842: Event_87: system.cpu progress event, total committed:52799119, progress insts committed: 0, IPC: 00000000
4916666666175: Event_87: system.cpu progress event, total committed:52799119, progress insts committed: 0, IPC: 00000000
4919999999508: Event_87: system.cpu progress event, total committed:52799119, progress insts committed: 0, IPC: 00000000
4923333332841: Event_87: system.cpu progress event, total committed:52799119, progress insts committed: 0, IPC: 00000000
4926666666174: Event_87: system.cpu progress event, total committed:52799119, progress insts committed: 0, IPC: 00000000
Exiting @ tick 4928016284640 because user interrupt received
