
---------- Begin Simulation Statistics ----------
final_tick                                67659457149                       # Number of ticks from beginning of simulation (restored from checkpoints and never reset)
host_inst_rate                                 667556                       # Simulator instruction rate (inst/s)
host_mem_usage                                9705556                       # Number of bytes of host memory used
host_op_rate                                  1263923                       # Simulator op (including micro ops) rate (op/s)
host_seconds                                    59.62                       # Real time elapsed on the host
host_tick_rate                             1134795473                       # Simulator tick rate (ticks/s)
sim_freq                                 1000000000000                       # Frequency of simulated ticks
sim_insts                                    39801372                       # Number of instructions simulated
sim_ops                                      75358335                       # Number of ops (including micro ops) simulated
sim_seconds                                  0.067659                       # Number of seconds simulated
sim_ticks                                 67659457149                       # Number of ticks simulated
system.cpu0.Branches                          2780018                       # Number of branches fetched
system.cpu0.committedInsts                   27788099                       # Number of instructions committed
system.cpu0.committedOps                     52797721                       # Number of ops (including micro ops) committed
system.cpu0.dtb.rdAccesses                   11113063                       # TLB accesses on read requests
system.cpu0.dtb.rdMisses                         5446                       # TLB misses on read requests
system.cpu0.dtb.wrAccesses                    5557395                       # TLB accesses on write requests
system.cpu0.dtb.wrMisses                            8                       # TLB misses on write requests
system.cpu0.idle_fraction                    0.000000                       # Percentage of idle cycles
system.cpu0.itb.rdAccesses                          0                       # TLB accesses on read requests
system.cpu0.itb.rdMisses                            0                       # TLB misses on read requests
system.cpu0.itb.wrAccesses                   38902351                       # TLB accesses on write requests
system.cpu0.itb.wrMisses                           46                       # TLB misses on write requests
system.cpu0.not_idle_fraction                1.000000                       # Percentage of non-idle cycles
system.cpu0.numCycles                       203181553                       # number of cpu cycles simulated
system.cpu0.numWorkItemsCompleted                   0                       # number of work items this cpu completed
system.cpu0.numWorkItemsStarted                     0                       # number of work items this cpu started
system.cpu0.num_busy_cycles              203181552.996997                       # Number of busy cycles
system.cpu0.num_cc_register_reads            13899961                       # number of times the CC registers were read
system.cpu0.num_cc_register_writes           16672913                       # number of times the CC registers were written
system.cpu0.num_conditional_control_insts      2779471                       # number of instructions that are conditional controls
system.cpu0.num_fp_alu_accesses                  1214                       # Number of float alu accesses
system.cpu0.num_fp_insts                         1214                       # number of float instructions
system.cpu0.num_fp_register_reads                1401                       # number of times the floating registers were read
system.cpu0.num_fp_register_writes                679                       # number of times the floating registers were written
system.cpu0.num_func_calls                        384                       # number of times a function call or return occured
system.cpu0.num_idle_cycles                  0.003003                       # Number of idle cycles
system.cpu0.num_int_alu_accesses             52796880                       # Number of integer alu accesses
system.cpu0.num_int_insts                    52796880                       # number of integer instructions
system.cpu0.num_int_register_reads          105592520                       # number of times the integer registers were read
system.cpu0.num_int_register_writes          44459432                       # number of times the integer registers were written
system.cpu0.num_load_insts                   11113060                       # Number of load instructions
system.cpu0.num_mem_refs                     16670454                       # number of memory refs
system.cpu0.num_store_insts                   5557394                       # Number of store instructions
system.cpu0.num_vec_alu_accesses                    0                       # Number of vector alu accesses
system.cpu0.num_vec_insts                           0                       # number of vector instructions
system.cpu0.num_vec_register_reads                  0                       # number of times the vector registers were read
system.cpu0.num_vec_register_writes                 0                       # number of times the vector registers were written
system.cpu0.op_class::No_OpClass                  336      0.00%      0.00% # Class of executed instruction
system.cpu0.op_class::IntAlu                 36126368     68.42%     68.42% # Class of executed instruction
system.cpu0.op_class::IntMult                       5      0.00%     68.42% # Class of executed instruction
system.cpu0.op_class::IntDiv                       28      0.00%     68.42% # Class of executed instruction
system.cpu0.op_class::FloatAdd                    144      0.00%     68.43% # Class of executed instruction
system.cpu0.op_class::FloatCmp                      0      0.00%     68.43% # Class of executed instruction
system.cpu0.op_class::FloatCvt                      0      0.00%     68.43% # Class of executed instruction
system.cpu0.op_class::FloatMult                     0      0.00%     68.43% # Class of executed instruction
system.cpu0.op_class::FloatMultAcc                  0      0.00%     68.43% # Class of executed instruction
system.cpu0.op_class::FloatDiv                      0      0.00%     68.43% # Class of executed instruction
system.cpu0.op_class::FloatMisc                     0      0.00%     68.43% # Class of executed instruction
system.cpu0.op_class::FloatSqrt                     0      0.00%     68.43% # Class of executed instruction
system.cpu0.op_class::SimdAdd                       0      0.00%     68.43% # Class of executed instruction
system.cpu0.op_class::SimdAddAcc                    0      0.00%     68.43% # Class of executed instruction
system.cpu0.op_class::SimdAlu                     104      0.00%     68.43% # Class of executed instruction
system.cpu0.op_class::SimdCmp                       0      0.00%     68.43% # Class of executed instruction
system.cpu0.op_class::SimdCvt                      54      0.00%     68.43% # Class of executed instruction
system.cpu0.op_class::SimdMisc                    228      0.00%     68.43% # Class of executed instruction
system.cpu0.op_class::SimdMult                      0      0.00%     68.43% # Class of executed instruction
system.cpu0.op_class::SimdMultAcc                   0      0.00%     68.43% # Class of executed instruction
system.cpu0.op_class::SimdShift                     0      0.00%     68.43% # Class of executed instruction
system.cpu0.op_class::SimdShiftAcc                  0      0.00%     68.43% # Class of executed instruction
system.cpu0.op_class::SimdDiv                       0      0.00%     68.43% # Class of executed instruction
system.cpu0.op_class::SimdSqrt                      0      0.00%     68.43% # Class of executed instruction
system.cpu0.op_class::SimdFloatAdd                  0      0.00%     68.43% # Class of executed instruction
system.cpu0.op_class::SimdFloatAlu                  0      0.00%     68.43% # Class of executed instruction
system.cpu0.op_class::SimdFloatCmp                  0      0.00%     68.43% # Class of executed instruction
system.cpu0.op_class::SimdFloatCvt                  0      0.00%     68.43% # Class of executed instruction
system.cpu0.op_class::SimdFloatDiv                  0      0.00%     68.43% # Class of executed instruction
system.cpu0.op_class::SimdFloatMisc                 0      0.00%     68.43% # Class of executed instruction
system.cpu0.op_class::SimdFloatMult                 0      0.00%     68.43% # Class of executed instruction
system.cpu0.op_class::SimdFloatMultAcc              0      0.00%     68.43% # Class of executed instruction
system.cpu0.op_class::SimdFloatSqrt                 0      0.00%     68.43% # Class of executed instruction
system.cpu0.op_class::SimdReduceAdd                 0      0.00%     68.43% # Class of executed instruction
system.cpu0.op_class::SimdReduceAlu                 0      0.00%     68.43% # Class of executed instruction
system.cpu0.op_class::SimdReduceCmp                 0      0.00%     68.43% # Class of executed instruction
system.cpu0.op_class::SimdFloatReduceAdd            0      0.00%     68.43% # Class of executed instruction
system.cpu0.op_class::SimdFloatReduceCmp            0      0.00%     68.43% # Class of executed instruction
system.cpu0.op_class::SimdAes                       0      0.00%     68.43% # Class of executed instruction
system.cpu0.op_class::SimdAesMix                    0      0.00%     68.43% # Class of executed instruction
system.cpu0.op_class::SimdSha1Hash                  0      0.00%     68.43% # Class of executed instruction
system.cpu0.op_class::SimdSha1Hash2                 0      0.00%     68.43% # Class of executed instruction
system.cpu0.op_class::SimdSha256Hash                0      0.00%     68.43% # Class of executed instruction
system.cpu0.op_class::SimdSha256Hash2               0      0.00%     68.43% # Class of executed instruction
system.cpu0.op_class::SimdShaSigma2                 0      0.00%     68.43% # Class of executed instruction
system.cpu0.op_class::SimdShaSigma3                 0      0.00%     68.43% # Class of executed instruction
system.cpu0.op_class::SimdPredAlu                   0      0.00%     68.43% # Class of executed instruction
system.cpu0.op_class::MemRead                11113000     21.05%     89.47% # Class of executed instruction
system.cpu0.op_class::MemWrite                5556913     10.52%    100.00% # Class of executed instruction
system.cpu0.op_class::FloatMemRead                 60      0.00%    100.00% # Class of executed instruction
system.cpu0.op_class::FloatMemWrite               481      0.00%    100.00% # Class of executed instruction
system.cpu0.op_class::IprAccess                     0      0.00%    100.00% # Class of executed instruction
system.cpu0.op_class::InstPrefetch                  0      0.00%    100.00% # Class of executed instruction
system.cpu0.op_class::total                  52797721                       # Class of executed instruction
system.cpu0.workload.numSyscalls                   12                       # Number of system calls
system.cpu1.Branches                          2602000                       # Number of branches fetched
system.cpu1.committedInsts                   12013273                       # Number of instructions committed
system.cpu1.committedOps                     22560614                       # Number of ops (including micro ops) committed
system.cpu1.dtb.rdAccesses                    2190088                       # TLB accesses on read requests
system.cpu1.dtb.rdMisses                          191                       # TLB misses on read requests
system.cpu1.dtb.wrAccesses                    1325118                       # TLB accesses on write requests
system.cpu1.dtb.wrMisses                          101                       # TLB misses on write requests
system.cpu1.idle_fraction                    0.746964                       # Percentage of idle cycles
system.cpu1.itb.rdAccesses                          0                       # TLB accesses on read requests
system.cpu1.itb.rdMisses                            0                       # TLB misses on read requests
system.cpu1.itb.wrAccesses                   14837034                       # TLB accesses on write requests
system.cpu1.itb.wrMisses                          195                       # TLB misses on write requests
system.cpu1.not_idle_fraction                0.253036                       # Percentage of non-idle cycles
system.cpu1.numCycles                        51412294                       # number of cpu cycles simulated
system.cpu1.numWorkItemsCompleted                   0                       # number of work items this cpu completed
system.cpu1.numWorkItemsStarted                     0                       # number of work items this cpu started
system.cpu1.num_busy_cycles              13009173.004517                       # Number of busy cycles
system.cpu1.num_cc_register_reads            10615041                       # number of times the CC registers were read
system.cpu1.num_cc_register_writes            6971735                       # number of times the CC registers were written
system.cpu1.num_conditional_control_insts      1520289                       # number of instructions that are conditional controls
system.cpu1.num_fp_alu_accesses                560201                       # Number of float alu accesses
system.cpu1.num_fp_insts                       560201                       # number of float instructions
system.cpu1.num_fp_register_reads              769384                       # number of times the floating registers were read
system.cpu1.num_fp_register_writes             424067                       # number of times the floating registers were written
system.cpu1.num_func_calls                     662440                       # number of times a function call or return occured
system.cpu1.num_idle_cycles              38403120.995483                       # Number of idle cycles
system.cpu1.num_int_alu_accesses             22159771                       # Number of integer alu accesses
system.cpu1.num_int_insts                    22159771                       # number of integer instructions
system.cpu1.num_int_register_reads           43025756                       # number of times the integer registers were read
system.cpu1.num_int_register_writes          18106975                       # number of times the integer registers were written
system.cpu1.num_load_insts                    2180840                       # Number of load instructions
system.cpu1.num_mem_refs                      3505758                       # number of memory refs
system.cpu1.num_store_insts                   1324918                       # Number of store instructions
system.cpu1.num_vec_alu_accesses                    0                       # Number of vector alu accesses
system.cpu1.num_vec_insts                           0                       # number of vector instructions
system.cpu1.num_vec_register_reads                  0                       # number of times the vector registers were read
system.cpu1.num_vec_register_writes                 0                       # number of times the vector registers were written
system.cpu1.op_class::No_OpClass               113023      0.50%      0.50% # Class of executed instruction
system.cpu1.op_class::IntAlu                 18695474     82.87%     83.37% # Class of executed instruction
system.cpu1.op_class::IntMult                   17031      0.08%     83.44% # Class of executed instruction
system.cpu1.op_class::IntDiv                       98      0.00%     83.44% # Class of executed instruction
system.cpu1.op_class::FloatAdd                  20394      0.09%     83.54% # Class of executed instruction
system.cpu1.op_class::FloatCmp                      0      0.00%     83.54% # Class of executed instruction
system.cpu1.op_class::FloatCvt                      0      0.00%     83.54% # Class of executed instruction
system.cpu1.op_class::FloatMult                     0      0.00%     83.54% # Class of executed instruction
system.cpu1.op_class::FloatMultAcc                  0      0.00%     83.54% # Class of executed instruction
system.cpu1.op_class::FloatDiv                      0      0.00%     83.54% # Class of executed instruction
system.cpu1.op_class::FloatMisc                     0      0.00%     83.54% # Class of executed instruction
system.cpu1.op_class::FloatSqrt                     0      0.00%     83.54% # Class of executed instruction
system.cpu1.op_class::SimdAdd                    4470      0.02%     83.55% # Class of executed instruction
system.cpu1.op_class::SimdAddAcc                    0      0.00%     83.55% # Class of executed instruction
system.cpu1.op_class::SimdAlu                   54516      0.24%     83.80% # Class of executed instruction
system.cpu1.op_class::SimdCmp                     982      0.00%     83.80% # Class of executed instruction
system.cpu1.op_class::SimdCvt                    9420      0.04%     83.84% # Class of executed instruction
system.cpu1.op_class::SimdMisc                  38510      0.17%     84.01% # Class of executed instruction
system.cpu1.op_class::SimdMult                      0      0.00%     84.01% # Class of executed instruction
system.cpu1.op_class::SimdMultAcc                   0      0.00%     84.01% # Class of executed instruction
system.cpu1.op_class::SimdShift                     0      0.00%     84.01% # Class of executed instruction
system.cpu1.op_class::SimdShiftAcc                  0      0.00%     84.01% # Class of executed instruction
system.cpu1.op_class::SimdDiv                       0      0.00%     84.01% # Class of executed instruction
system.cpu1.op_class::SimdSqrt                      0      0.00%     84.01% # Class of executed instruction
system.cpu1.op_class::SimdFloatAdd              27958      0.12%     84.14% # Class of executed instruction
system.cpu1.op_class::SimdFloatAlu                  0      0.00%     84.14% # Class of executed instruction
system.cpu1.op_class::SimdFloatCmp                  0      0.00%     84.14% # Class of executed instruction
system.cpu1.op_class::SimdFloatCvt              22404      0.10%     84.24% # Class of executed instruction
system.cpu1.op_class::SimdFloatDiv               3059      0.01%     84.25% # Class of executed instruction
system.cpu1.op_class::SimdFloatMisc                 0      0.00%     84.25% # Class of executed instruction
system.cpu1.op_class::SimdFloatMult             45459      0.20%     84.45% # Class of executed instruction
system.cpu1.op_class::SimdFloatMultAcc              0      0.00%     84.45% # Class of executed instruction
system.cpu1.op_class::SimdFloatSqrt              2058      0.01%     84.46% # Class of executed instruction
system.cpu1.op_class::SimdReduceAdd                 0      0.00%     84.46% # Class of executed instruction
system.cpu1.op_class::SimdReduceAlu                 0      0.00%     84.46% # Class of executed instruction
system.cpu1.op_class::SimdReduceCmp                 0      0.00%     84.46% # Class of executed instruction
system.cpu1.op_class::SimdFloatReduceAdd            0      0.00%     84.46% # Class of executed instruction
system.cpu1.op_class::SimdFloatReduceCmp            0      0.00%     84.46% # Class of executed instruction
system.cpu1.op_class::SimdAes                       0      0.00%     84.46% # Class of executed instruction
system.cpu1.op_class::SimdAesMix                    0      0.00%     84.46% # Class of executed instruction
system.cpu1.op_class::SimdSha1Hash                  0      0.00%     84.46% # Class of executed instruction
system.cpu1.op_class::SimdSha1Hash2                 0      0.00%     84.46% # Class of executed instruction
system.cpu1.op_class::SimdSha256Hash                0      0.00%     84.46% # Class of executed instruction
system.cpu1.op_class::SimdSha256Hash2               0      0.00%     84.46% # Class of executed instruction
system.cpu1.op_class::SimdShaSigma2                 0      0.00%     84.46% # Class of executed instruction
system.cpu1.op_class::SimdShaSigma3                 0      0.00%     84.46% # Class of executed instruction
system.cpu1.op_class::SimdPredAlu                   0      0.00%     84.46% # Class of executed instruction
system.cpu1.op_class::MemRead                 2052496      9.10%     93.56% # Class of executed instruction
system.cpu1.op_class::MemWrite                1209956      5.36%     98.92% # Class of executed instruction
system.cpu1.op_class::FloatMemRead             128344      0.57%     99.49% # Class of executed instruction
system.cpu1.op_class::FloatMemWrite            114962      0.51%    100.00% # Class of executed instruction
system.cpu1.op_class::IprAccess                     0      0.00%    100.00% # Class of executed instruction
system.cpu1.op_class::InstPrefetch                  0      0.00%    100.00% # Class of executed instruction
system.cpu1.op_class::total                  22560614                       # Class of executed instruction
system.cpu1.workload.numSyscalls                   26                       # Number of system calls
system.membus.snoop_filter.hit_multi_requests            0                       # Number of requests hitting in the snoop filter with multiple (>1) holders of the requested data.
system.membus.snoop_filter.hit_multi_snoops            0                       # Number of snoops hitting in the snoop filter with multiple (>1) holders of the requested data.
system.membus.snoop_filter.hit_single_requests        98569                       # Number of requests hitting in the snoop filter with a single holder of the requested data.
system.membus.snoop_filter.hit_single_snoops            0                       # Number of snoops hitting in the snoop filter with a single holder of the requested data.
system.membus.snoop_filter.tot_requests        456362                       # Total number of requests made to the snoop filter.
system.membus.snoop_filter.tot_snoops               0                       # Total number of snoops made to the snoop filter.
system.tol2bus.snoop_filter.hit_multi_requests            0                       # Number of requests hitting in the snoop filter with multiple (>1) holders of the requested data.
system.tol2bus.snoop_filter.hit_multi_snoops            0                       # Number of snoops hitting in the snoop filter with multiple (>1) holders of the requested data.
system.tol2bus.snoop_filter.hit_single_requests       743204                       # Number of requests hitting in the snoop filter with a single holder of the requested data.
system.tol2bus.snoop_filter.hit_single_snoops          288                       # Number of snoops hitting in the snoop filter with a single holder of the requested data.
system.tol2bus.snoop_filter.tot_requests      1487367                       # Total number of requests made to the snoop filter.
system.tol2bus.snoop_filter.tot_snoops            288                       # Total number of snoops made to the snoop filter.
system.membus.pwrStateResidencyTicks::UNDEFINED  67659457149                       # Cumulative time (in ticks) in various power states
system.membus.trans_dist::ReadResp             353658                       # Transaction distribution
system.membus.trans_dist::WritebackDirty         1657                       # Transaction distribution
system.membus.trans_dist::CleanEvict            96912                       # Transaction distribution
system.membus.trans_dist::ReadExReq              4135                       # Transaction distribution
system.membus.trans_dist::ReadExResp             4135                       # Transaction distribution
system.membus.trans_dist::ReadSharedReq        353658                       # Transaction distribution
system.membus.pkt_count_system.l2.mem_side::system.mem_ctrls.port       814155                       # Packet count per connected master and slave (bytes)
system.membus.pkt_count_system.l2.mem_side::total       814155                       # Packet count per connected master and slave (bytes)
system.membus.pkt_count::total                 814155                       # Packet count per connected master and slave (bytes)
system.membus.pkt_size_system.l2.mem_side::system.mem_ctrls.port     23004800                       # Cumulative packet size per connected master and slave (bytes)
system.membus.pkt_size_system.l2.mem_side::total     23004800                       # Cumulative packet size per connected master and slave (bytes)
system.membus.pkt_size::total                23004800                       # Cumulative packet size per connected master and slave (bytes)
system.membus.snoops                                0                       # Total snoops (count)
system.membus.snoopTraffic                          0                       # Total snoop traffic (bytes)
system.membus.snoop_fanout::samples            357793                       # Request fanout histogram
system.membus.snoop_fanout::mean                    0                       # Request fanout histogram
system.membus.snoop_fanout::stdev                   0                       # Request fanout histogram
system.membus.snoop_fanout::underflows              0      0.00%      0.00% # Request fanout histogram
system.membus.snoop_fanout::0                  357793    100.00%    100.00% # Request fanout histogram
system.membus.snoop_fanout::1                       0      0.00%    100.00% # Request fanout histogram
system.membus.snoop_fanout::overflows               0      0.00%    100.00% # Request fanout histogram
system.membus.snoop_fanout::min_value               0                       # Request fanout histogram
system.membus.snoop_fanout::max_value               0                       # Request fanout histogram
system.membus.snoop_fanout::total              357793                       # Request fanout histogram
system.membus.reqLayer4.occupancy           650001648                       # Layer occupancy (ticks)
system.membus.reqLayer4.utilization               1.0                       # Layer utilization (%)
system.membus.respLayer1.occupancy         1914585834                       # Layer occupancy (ticks)
system.membus.respLayer1.utilization              2.8                       # Layer utilization (%)
system.voltage_domain.voltage                       1                       # Voltage in Volts
system.clk_domain.clock                          1000                       # Clock period in ticks
system.cpu0.numPwrStateTransitions                  1                       # Number of power state transitions
system.cpu0.pwrStateResidencyTicks::ON    67659457149                       # Cumulative time (in ticks) in various power states
system.cpu0.icache.pwrStateResidencyTicks::UNDEFINED  67659457149                       # Cumulative time (in ticks) in various power states
system.cpu0.icache.demand_hits::.cpu0.inst     38901902                       # number of demand (read+write) hits
system.cpu0.icache.demand_hits::total        38901902                       # number of demand (read+write) hits
system.cpu0.icache.overall_hits::.cpu0.inst     38901902                       # number of overall hits
system.cpu0.icache.overall_hits::total       38901902                       # number of overall hits
system.cpu0.icache.demand_misses::.cpu0.inst          449                       # number of demand (read+write) misses
system.cpu0.icache.demand_misses::total           449                       # number of demand (read+write) misses
system.cpu0.icache.overall_misses::.cpu0.inst          449                       # number of overall misses
system.cpu0.icache.overall_misses::total          449                       # number of overall misses
system.cpu0.icache.demand_miss_latency::.cpu0.inst     37895067                       # number of demand (read+write) miss cycles
system.cpu0.icache.demand_miss_latency::total     37895067                       # number of demand (read+write) miss cycles
system.cpu0.icache.overall_miss_latency::.cpu0.inst     37895067                       # number of overall miss cycles
system.cpu0.icache.overall_miss_latency::total     37895067                       # number of overall miss cycles
system.cpu0.icache.demand_accesses::.cpu0.inst     38902351                       # number of demand (read+write) accesses
system.cpu0.icache.demand_accesses::total     38902351                       # number of demand (read+write) accesses
system.cpu0.icache.overall_accesses::.cpu0.inst     38902351                       # number of overall (read+write) accesses
system.cpu0.icache.overall_accesses::total     38902351                       # number of overall (read+write) accesses
system.cpu0.icache.demand_miss_rate::.cpu0.inst     0.000012                       # miss rate for demand accesses
system.cpu0.icache.demand_miss_rate::total     0.000012                       # miss rate for demand accesses
system.cpu0.icache.overall_miss_rate::.cpu0.inst     0.000012                       # miss rate for overall accesses
system.cpu0.icache.overall_miss_rate::total     0.000012                       # miss rate for overall accesses
system.cpu0.icache.demand_avg_miss_latency::.cpu0.inst 84398.812918                       # average overall miss latency
system.cpu0.icache.demand_avg_miss_latency::total 84398.812918                       # average overall miss latency
system.cpu0.icache.overall_avg_miss_latency::.cpu0.inst 84398.812918                       # average overall miss latency
system.cpu0.icache.overall_avg_miss_latency::total 84398.812918                       # average overall miss latency
system.cpu0.icache.blocked_cycles::no_mshrs            0                       # number of cycles access was blocked
system.cpu0.icache.blocked_cycles::no_targets            0                       # number of cycles access was blocked
system.cpu0.icache.blocked::no_mshrs                0                       # number of cycles access was blocked
system.cpu0.icache.blocked::no_targets              0                       # number of cycles access was blocked
system.cpu0.icache.avg_blocked_cycles::no_mshrs          nan                       # average number of cycles each access was blocked
system.cpu0.icache.avg_blocked_cycles::no_targets          nan                       # average number of cycles each access was blocked
system.cpu0.icache.writebacks::.writebacks           18                       # number of writebacks
system.cpu0.icache.writebacks::total               18                       # number of writebacks
system.cpu0.icache.demand_mshr_misses::.cpu0.inst          449                       # number of demand (read+write) MSHR misses
system.cpu0.icache.demand_mshr_misses::total          449                       # number of demand (read+write) MSHR misses
system.cpu0.icache.overall_mshr_misses::.cpu0.inst          449                       # number of overall MSHR misses
system.cpu0.icache.overall_mshr_misses::total          449                       # number of overall MSHR misses
system.cpu0.icache.demand_mshr_miss_latency::.cpu0.inst     37596033                       # number of demand (read+write) MSHR miss cycles
system.cpu0.icache.demand_mshr_miss_latency::total     37596033                       # number of demand (read+write) MSHR miss cycles
system.cpu0.icache.overall_mshr_miss_latency::.cpu0.inst     37596033                       # number of overall MSHR miss cycles
system.cpu0.icache.overall_mshr_miss_latency::total     37596033                       # number of overall MSHR miss cycles
system.cpu0.icache.demand_mshr_miss_rate::.cpu0.inst     0.000012                       # mshr miss rate for demand accesses
system.cpu0.icache.demand_mshr_miss_rate::total     0.000012                       # mshr miss rate for demand accesses
system.cpu0.icache.overall_mshr_miss_rate::.cpu0.inst     0.000012                       # mshr miss rate for overall accesses
system.cpu0.icache.overall_mshr_miss_rate::total     0.000012                       # mshr miss rate for overall accesses
system.cpu0.icache.demand_avg_mshr_miss_latency::.cpu0.inst 83732.812918                       # average overall mshr miss latency
system.cpu0.icache.demand_avg_mshr_miss_latency::total 83732.812918                       # average overall mshr miss latency
system.cpu0.icache.overall_avg_mshr_miss_latency::.cpu0.inst 83732.812918                       # average overall mshr miss latency
system.cpu0.icache.overall_avg_mshr_miss_latency::total 83732.812918                       # average overall mshr miss latency
system.cpu0.icache.replacements                    18                       # number of replacements
system.cpu0.icache.ReadReq_hits::.cpu0.inst     38901902                       # number of ReadReq hits
system.cpu0.icache.ReadReq_hits::total       38901902                       # number of ReadReq hits
system.cpu0.icache.ReadReq_misses::.cpu0.inst          449                       # number of ReadReq misses
system.cpu0.icache.ReadReq_misses::total          449                       # number of ReadReq misses
system.cpu0.icache.ReadReq_miss_latency::.cpu0.inst     37895067                       # number of ReadReq miss cycles
system.cpu0.icache.ReadReq_miss_latency::total     37895067                       # number of ReadReq miss cycles
system.cpu0.icache.ReadReq_accesses::.cpu0.inst     38902351                       # number of ReadReq accesses(hits+misses)
system.cpu0.icache.ReadReq_accesses::total     38902351                       # number of ReadReq accesses(hits+misses)
system.cpu0.icache.ReadReq_miss_rate::.cpu0.inst     0.000012                       # miss rate for ReadReq accesses
system.cpu0.icache.ReadReq_miss_rate::total     0.000012                       # miss rate for ReadReq accesses
system.cpu0.icache.ReadReq_avg_miss_latency::.cpu0.inst 84398.812918                       # average ReadReq miss latency
system.cpu0.icache.ReadReq_avg_miss_latency::total 84398.812918                       # average ReadReq miss latency
system.cpu0.icache.ReadReq_mshr_misses::.cpu0.inst          449                       # number of ReadReq MSHR misses
system.cpu0.icache.ReadReq_mshr_misses::total          449                       # number of ReadReq MSHR misses
system.cpu0.icache.ReadReq_mshr_miss_latency::.cpu0.inst     37596033                       # number of ReadReq MSHR miss cycles
system.cpu0.icache.ReadReq_mshr_miss_latency::total     37596033                       # number of ReadReq MSHR miss cycles
system.cpu0.icache.ReadReq_mshr_miss_rate::.cpu0.inst     0.000012                       # mshr miss rate for ReadReq accesses
system.cpu0.icache.ReadReq_mshr_miss_rate::total     0.000012                       # mshr miss rate for ReadReq accesses
system.cpu0.icache.ReadReq_avg_mshr_miss_latency::.cpu0.inst 83732.812918                       # average ReadReq mshr miss latency
system.cpu0.icache.ReadReq_avg_mshr_miss_latency::total 83732.812918                       # average ReadReq mshr miss latency
system.cpu0.icache.tags.pwrStateResidencyTicks::UNDEFINED  67659457149                       # Cumulative time (in ticks) in various power states
system.cpu0.icache.tags.tagsinuse          347.854563                       # Cycle average of tags in use
system.cpu0.icache.tags.total_refs           38902351                       # Total number of references to valid blocks.
system.cpu0.icache.tags.sampled_refs              449                       # Sample count of references to valid blocks.
system.cpu0.icache.tags.avg_refs         86642.207127                       # Average number of references to valid blocks.
system.cpu0.icache.tags.warmup_cycle            83250                       # Cycle when the warmup percentage was hit.
system.cpu0.icache.tags.occ_blocks::.cpu0.inst   347.854563                       # Average occupied blocks per requestor
system.cpu0.icache.tags.occ_percent::.cpu0.inst     0.679403                       # Average percentage of cache occupancy
system.cpu0.icache.tags.occ_percent::total     0.679403                       # Average percentage of cache occupancy
system.cpu0.icache.tags.occ_task_id_blocks::1024          431                       # Occupied blocks per task id
system.cpu0.icache.tags.age_task_id_blocks_1024::0           65                       # Occupied blocks per task id
system.cpu0.icache.tags.age_task_id_blocks_1024::1           31                       # Occupied blocks per task id
system.cpu0.icache.tags.age_task_id_blocks_1024::4          335                       # Occupied blocks per task id
system.cpu0.icache.tags.occ_task_id_percent::1024     0.841797                       # Percentage of cache occupancy per task id
system.cpu0.icache.tags.tag_accesses        311219257                       # Number of tag accesses
system.cpu0.icache.tags.data_accesses       311219257                       # Number of data accesses
system.cpu0.icache.tags.repl_invalid                0                       # Number of initial replacements
system.cpu0.icache.tags.repl_valid_tag              0                       # Number of local replacements
system.cpu0.icache.tags.repl_valid_data             0                       # Number of global replacements
system.cpu0.dtb.walker.pwrStateResidencyTicks::UNDEFINED  67659457149                       # Cumulative time (in ticks) in various power states
system.cpu0.interrupts.clk_domain.clock          5328                       # Clock period in ticks
system.cpu0.itb_walker_cache.pwrStateResidencyTicks::UNDEFINED  67659457149                       # Cumulative time (in ticks) in various power states
system.cpu0.itb_walker_cache.blocked_cycles::no_mshrs            0                       # number of cycles access was blocked
system.cpu0.itb_walker_cache.blocked_cycles::no_targets            0                       # number of cycles access was blocked
system.cpu0.itb_walker_cache.blocked::no_mshrs            0                       # number of cycles access was blocked
system.cpu0.itb_walker_cache.blocked::no_targets            0                       # number of cycles access was blocked
system.cpu0.itb_walker_cache.avg_blocked_cycles::no_mshrs          nan                       # average number of cycles each access was blocked
system.cpu0.itb_walker_cache.avg_blocked_cycles::no_targets          nan                       # average number of cycles each access was blocked
system.cpu0.itb_walker_cache.replacements            0                       # number of replacements
system.cpu0.itb_walker_cache.tags.pwrStateResidencyTicks::UNDEFINED  67659457149                       # Cumulative time (in ticks) in various power states
system.cpu0.itb_walker_cache.tags.tagsinuse            0                       # Cycle average of tags in use
system.cpu0.itb_walker_cache.tags.total_refs            0                       # Total number of references to valid blocks.
system.cpu0.itb_walker_cache.tags.sampled_refs            0                       # Sample count of references to valid blocks.
system.cpu0.itb_walker_cache.tags.avg_refs          nan                       # Average number of references to valid blocks.
system.cpu0.itb_walker_cache.tags.warmup_cycle            0                       # Cycle when the warmup percentage was hit.
system.cpu0.itb_walker_cache.tags.tag_accesses            0                       # Number of tag accesses
system.cpu0.itb_walker_cache.tags.data_accesses            0                       # Number of data accesses
system.cpu0.itb_walker_cache.tags.repl_invalid            0                       # Number of initial replacements
system.cpu0.itb_walker_cache.tags.repl_valid_tag            0                       # Number of local replacements
system.cpu0.itb_walker_cache.tags.repl_valid_data            0                       # Number of global replacements
system.cpu0.itb.walker.pwrStateResidencyTicks::UNDEFINED  67659457149                       # Cumulative time (in ticks) in various power states
system.cpu0.dtb_walker_cache.pwrStateResidencyTicks::UNDEFINED  67659457149                       # Cumulative time (in ticks) in various power states
system.cpu0.dtb_walker_cache.blocked_cycles::no_mshrs            0                       # number of cycles access was blocked
system.cpu0.dtb_walker_cache.blocked_cycles::no_targets            0                       # number of cycles access was blocked
system.cpu0.dtb_walker_cache.blocked::no_mshrs            0                       # number of cycles access was blocked
system.cpu0.dtb_walker_cache.blocked::no_targets            0                       # number of cycles access was blocked
system.cpu0.dtb_walker_cache.avg_blocked_cycles::no_mshrs          nan                       # average number of cycles each access was blocked
system.cpu0.dtb_walker_cache.avg_blocked_cycles::no_targets          nan                       # average number of cycles each access was blocked
system.cpu0.dtb_walker_cache.replacements            0                       # number of replacements
system.cpu0.dtb_walker_cache.tags.pwrStateResidencyTicks::UNDEFINED  67659457149                       # Cumulative time (in ticks) in various power states
system.cpu0.dtb_walker_cache.tags.tagsinuse            0                       # Cycle average of tags in use
system.cpu0.dtb_walker_cache.tags.total_refs            0                       # Total number of references to valid blocks.
system.cpu0.dtb_walker_cache.tags.sampled_refs            0                       # Sample count of references to valid blocks.
system.cpu0.dtb_walker_cache.tags.avg_refs          nan                       # Average number of references to valid blocks.
system.cpu0.dtb_walker_cache.tags.warmup_cycle            0                       # Cycle when the warmup percentage was hit.
system.cpu0.dtb_walker_cache.tags.tag_accesses            0                       # Number of tag accesses
system.cpu0.dtb_walker_cache.tags.data_accesses            0                       # Number of data accesses
system.cpu0.dtb_walker_cache.tags.repl_invalid            0                       # Number of initial replacements
system.cpu0.dtb_walker_cache.tags.repl_valid_tag            0                       # Number of local replacements
system.cpu0.dtb_walker_cache.tags.repl_valid_data            0                       # Number of global replacements
system.cpu0.dcache.pwrStateResidencyTicks::UNDEFINED  67659457149                       # Cumulative time (in ticks) in various power states
system.cpu0.dcache.demand_hits::.cpu0.data     16322542                       # number of demand (read+write) hits
system.cpu0.dcache.demand_hits::total        16322542                       # number of demand (read+write) hits
system.cpu0.dcache.overall_hits::.cpu0.data     16322542                       # number of overall hits
system.cpu0.dcache.overall_hits::total       16322542                       # number of overall hits
system.cpu0.dcache.demand_misses::.cpu0.data       347916                       # number of demand (read+write) misses
system.cpu0.dcache.demand_misses::total        347916                       # number of demand (read+write) misses
system.cpu0.dcache.overall_misses::.cpu0.data       347916                       # number of overall misses
system.cpu0.dcache.overall_misses::total       347916                       # number of overall misses
system.cpu0.dcache.demand_miss_latency::.cpu0.data  30842105688                       # number of demand (read+write) miss cycles
system.cpu0.dcache.demand_miss_latency::total  30842105688                       # number of demand (read+write) miss cycles
system.cpu0.dcache.overall_miss_latency::.cpu0.data  30842105688                       # number of overall miss cycles
system.cpu0.dcache.overall_miss_latency::total  30842105688                       # number of overall miss cycles
system.cpu0.dcache.demand_accesses::.cpu0.data     16670458                       # number of demand (read+write) accesses
system.cpu0.dcache.demand_accesses::total     16670458                       # number of demand (read+write) accesses
system.cpu0.dcache.overall_accesses::.cpu0.data     16670458                       # number of overall (read+write) accesses
system.cpu0.dcache.overall_accesses::total     16670458                       # number of overall (read+write) accesses
system.cpu0.dcache.demand_miss_rate::.cpu0.data     0.020870                       # miss rate for demand accesses
system.cpu0.dcache.demand_miss_rate::total     0.020870                       # miss rate for demand accesses
system.cpu0.dcache.overall_miss_rate::.cpu0.data     0.020870                       # miss rate for overall accesses
system.cpu0.dcache.overall_miss_rate::total     0.020870                       # miss rate for overall accesses
system.cpu0.dcache.demand_avg_miss_latency::.cpu0.data 88648.138309                       # average overall miss latency
system.cpu0.dcache.demand_avg_miss_latency::total 88648.138309                       # average overall miss latency
system.cpu0.dcache.overall_avg_miss_latency::.cpu0.data 88648.138309                       # average overall miss latency
system.cpu0.dcache.overall_avg_miss_latency::total 88648.138309                       # average overall miss latency
system.cpu0.dcache.blocked_cycles::no_mshrs            0                       # number of cycles access was blocked
system.cpu0.dcache.blocked_cycles::no_targets            0                       # number of cycles access was blocked
system.cpu0.dcache.blocked::no_mshrs                0                       # number of cycles access was blocked
system.cpu0.dcache.blocked::no_targets              0                       # number of cycles access was blocked
system.cpu0.dcache.avg_blocked_cycles::no_mshrs          nan                       # average number of cycles each access was blocked
system.cpu0.dcache.avg_blocked_cycles::no_targets          nan                       # average number of cycles each access was blocked
system.cpu0.dcache.writebacks::.writebacks          531                       # number of writebacks
system.cpu0.dcache.writebacks::total              531                       # number of writebacks
system.cpu0.dcache.demand_mshr_misses::.cpu0.data       347916                       # number of demand (read+write) MSHR misses
system.cpu0.dcache.demand_mshr_misses::total       347916                       # number of demand (read+write) MSHR misses
system.cpu0.dcache.overall_mshr_misses::.cpu0.data       347916                       # number of overall MSHR misses
system.cpu0.dcache.overall_mshr_misses::total       347916                       # number of overall MSHR misses
system.cpu0.dcache.demand_mshr_miss_latency::.cpu0.data  30610393632                       # number of demand (read+write) MSHR miss cycles
system.cpu0.dcache.demand_mshr_miss_latency::total  30610393632                       # number of demand (read+write) MSHR miss cycles
system.cpu0.dcache.overall_mshr_miss_latency::.cpu0.data  30610393632                       # number of overall MSHR miss cycles
system.cpu0.dcache.overall_mshr_miss_latency::total  30610393632                       # number of overall MSHR miss cycles
system.cpu0.dcache.demand_mshr_miss_rate::.cpu0.data     0.020870                       # mshr miss rate for demand accesses
system.cpu0.dcache.demand_mshr_miss_rate::total     0.020870                       # mshr miss rate for demand accesses
system.cpu0.dcache.overall_mshr_miss_rate::.cpu0.data     0.020870                       # mshr miss rate for overall accesses
system.cpu0.dcache.overall_mshr_miss_rate::total     0.020870                       # mshr miss rate for overall accesses
system.cpu0.dcache.demand_avg_mshr_miss_latency::.cpu0.data 87982.138309                       # average overall mshr miss latency
system.cpu0.dcache.demand_avg_mshr_miss_latency::total 87982.138309                       # average overall mshr miss latency
system.cpu0.dcache.overall_avg_mshr_miss_latency::.cpu0.data 87982.138309                       # average overall mshr miss latency
system.cpu0.dcache.overall_avg_mshr_miss_latency::total 87982.138309                       # average overall mshr miss latency
system.cpu0.dcache.replacements                347908                       # number of replacements
system.cpu0.dcache.ReadReq_hits::.cpu0.data     10765403                       # number of ReadReq hits
system.cpu0.dcache.ReadReq_hits::total       10765403                       # number of ReadReq hits
system.cpu0.dcache.ReadReq_misses::.cpu0.data       347660                       # number of ReadReq misses
system.cpu0.dcache.ReadReq_misses::total       347660                       # number of ReadReq misses
system.cpu0.dcache.ReadReq_miss_latency::.cpu0.data  30830045094                       # number of ReadReq miss cycles
system.cpu0.dcache.ReadReq_miss_latency::total  30830045094                       # number of ReadReq miss cycles
system.cpu0.dcache.ReadReq_accesses::.cpu0.data     11113063                       # number of ReadReq accesses(hits+misses)
system.cpu0.dcache.ReadReq_accesses::total     11113063                       # number of ReadReq accesses(hits+misses)
system.cpu0.dcache.ReadReq_miss_rate::.cpu0.data     0.031284                       # miss rate for ReadReq accesses
system.cpu0.dcache.ReadReq_miss_rate::total     0.031284                       # miss rate for ReadReq accesses
system.cpu0.dcache.ReadReq_avg_miss_latency::.cpu0.data 88678.723736                       # average ReadReq miss latency
system.cpu0.dcache.ReadReq_avg_miss_latency::total 88678.723736                       # average ReadReq miss latency
system.cpu0.dcache.ReadReq_mshr_misses::.cpu0.data       347660                       # number of ReadReq MSHR misses
system.cpu0.dcache.ReadReq_mshr_misses::total       347660                       # number of ReadReq MSHR misses
system.cpu0.dcache.ReadReq_mshr_miss_latency::.cpu0.data  30598503534                       # number of ReadReq MSHR miss cycles
system.cpu0.dcache.ReadReq_mshr_miss_latency::total  30598503534                       # number of ReadReq MSHR miss cycles
system.cpu0.dcache.ReadReq_mshr_miss_rate::.cpu0.data     0.031284                       # mshr miss rate for ReadReq accesses
system.cpu0.dcache.ReadReq_mshr_miss_rate::total     0.031284                       # mshr miss rate for ReadReq accesses
system.cpu0.dcache.ReadReq_avg_mshr_miss_latency::.cpu0.data 88012.723736                       # average ReadReq mshr miss latency
system.cpu0.dcache.ReadReq_avg_mshr_miss_latency::total 88012.723736                       # average ReadReq mshr miss latency
system.cpu0.dcache.WriteReq_hits::.cpu0.data      5557139                       # number of WriteReq hits
system.cpu0.dcache.WriteReq_hits::total       5557139                       # number of WriteReq hits
system.cpu0.dcache.WriteReq_misses::.cpu0.data          256                       # number of WriteReq misses
system.cpu0.dcache.WriteReq_misses::total          256                       # number of WriteReq misses
system.cpu0.dcache.WriteReq_miss_latency::.cpu0.data     12060594                       # number of WriteReq miss cycles
system.cpu0.dcache.WriteReq_miss_latency::total     12060594                       # number of WriteReq miss cycles
system.cpu0.dcache.WriteReq_accesses::.cpu0.data      5557395                       # number of WriteReq accesses(hits+misses)
system.cpu0.dcache.WriteReq_accesses::total      5557395                       # number of WriteReq accesses(hits+misses)
system.cpu0.dcache.WriteReq_miss_rate::.cpu0.data     0.000046                       # miss rate for WriteReq accesses
system.cpu0.dcache.WriteReq_miss_rate::total     0.000046                       # miss rate for WriteReq accesses
system.cpu0.dcache.WriteReq_avg_miss_latency::.cpu0.data 47111.695312                       # average WriteReq miss latency
system.cpu0.dcache.WriteReq_avg_miss_latency::total 47111.695312                       # average WriteReq miss latency
system.cpu0.dcache.WriteReq_mshr_misses::.cpu0.data          256                       # number of WriteReq MSHR misses
system.cpu0.dcache.WriteReq_mshr_misses::total          256                       # number of WriteReq MSHR misses
system.cpu0.dcache.WriteReq_mshr_miss_latency::.cpu0.data     11890098                       # number of WriteReq MSHR miss cycles
system.cpu0.dcache.WriteReq_mshr_miss_latency::total     11890098                       # number of WriteReq MSHR miss cycles
system.cpu0.dcache.WriteReq_mshr_miss_rate::.cpu0.data     0.000046                       # mshr miss rate for WriteReq accesses
system.cpu0.dcache.WriteReq_mshr_miss_rate::total     0.000046                       # mshr miss rate for WriteReq accesses
system.cpu0.dcache.WriteReq_avg_mshr_miss_latency::.cpu0.data 46445.695312                       # average WriteReq mshr miss latency
system.cpu0.dcache.WriteReq_avg_mshr_miss_latency::total 46445.695312                       # average WriteReq mshr miss latency
system.cpu0.dcache.tags.pwrStateResidencyTicks::UNDEFINED  67659457149                       # Cumulative time (in ticks) in various power states
system.cpu0.dcache.tags.tagsinuse            7.999914                       # Cycle average of tags in use
system.cpu0.dcache.tags.total_refs           16670458                       # Total number of references to valid blocks.
system.cpu0.dcache.tags.sampled_refs           347916                       # Sample count of references to valid blocks.
system.cpu0.dcache.tags.avg_refs            47.915181                       # Average number of references to valid blocks.
system.cpu0.dcache.tags.warmup_cycle           166167                       # Cycle when the warmup percentage was hit.
system.cpu0.dcache.tags.occ_blocks::.cpu0.data     7.999914                       # Average occupied blocks per requestor
system.cpu0.dcache.tags.occ_percent::.cpu0.data     0.999989                       # Average percentage of cache occupancy
system.cpu0.dcache.tags.occ_percent::total     0.999989                       # Average percentage of cache occupancy
system.cpu0.dcache.tags.occ_task_id_blocks::1024            8                       # Occupied blocks per task id
system.cpu0.dcache.tags.age_task_id_blocks_1024::0            8                       # Occupied blocks per task id
system.cpu0.dcache.tags.occ_task_id_percent::1024            1                       # Percentage of cache occupancy per task id
system.cpu0.dcache.tags.tag_accesses        133711580                       # Number of tag accesses
system.cpu0.dcache.tags.data_accesses       133711580                       # Number of data accesses
system.cpu0.dcache.tags.repl_invalid                0                       # Number of initial replacements
system.cpu0.dcache.tags.repl_valid_tag              0                       # Number of local replacements
system.cpu0.dcache.tags.repl_valid_data             0                       # Number of global replacements
system.cpu1.numPwrStateTransitions                  1                       # Number of power state transitions
system.cpu1.pwrStateResidencyTicks::ON    67659457149                       # Cumulative time (in ticks) in various power states
system.cpu1.icache.pwrStateResidencyTicks::UNDEFINED  67659457149                       # Cumulative time (in ticks) in various power states
system.cpu1.icache.demand_hits::.cpu1.inst     14833226                       # number of demand (read+write) hits
system.cpu1.icache.demand_hits::total        14833226                       # number of demand (read+write) hits
system.cpu1.icache.overall_hits::.cpu1.inst     14833226                       # number of overall hits
system.cpu1.icache.overall_hits::total       14833226                       # number of overall hits
system.cpu1.icache.demand_misses::.cpu1.inst         3808                       # number of demand (read+write) misses
system.cpu1.icache.demand_misses::total          3808                       # number of demand (read+write) misses
system.cpu1.icache.overall_misses::.cpu1.inst         3808                       # number of overall misses
system.cpu1.icache.overall_misses::total         3808                       # number of overall misses
system.cpu1.icache.demand_miss_latency::.cpu1.inst    228716388                       # number of demand (read+write) miss cycles
system.cpu1.icache.demand_miss_latency::total    228716388                       # number of demand (read+write) miss cycles
system.cpu1.icache.overall_miss_latency::.cpu1.inst    228716388                       # number of overall miss cycles
system.cpu1.icache.overall_miss_latency::total    228716388                       # number of overall miss cycles
system.cpu1.icache.demand_accesses::.cpu1.inst     14837034                       # number of demand (read+write) accesses
system.cpu1.icache.demand_accesses::total     14837034                       # number of demand (read+write) accesses
system.cpu1.icache.overall_accesses::.cpu1.inst     14837034                       # number of overall (read+write) accesses
system.cpu1.icache.overall_accesses::total     14837034                       # number of overall (read+write) accesses
system.cpu1.icache.demand_miss_rate::.cpu1.inst     0.000257                       # miss rate for demand accesses
system.cpu1.icache.demand_miss_rate::total     0.000257                       # miss rate for demand accesses
system.cpu1.icache.overall_miss_rate::.cpu1.inst     0.000257                       # miss rate for overall accesses
system.cpu1.icache.overall_miss_rate::total     0.000257                       # miss rate for overall accesses
system.cpu1.icache.demand_avg_miss_latency::.cpu1.inst 60062.076681                       # average overall miss latency
system.cpu1.icache.demand_avg_miss_latency::total 60062.076681                       # average overall miss latency
system.cpu1.icache.overall_avg_miss_latency::.cpu1.inst 60062.076681                       # average overall miss latency
system.cpu1.icache.overall_avg_miss_latency::total 60062.076681                       # average overall miss latency
system.cpu1.icache.blocked_cycles::no_mshrs            0                       # number of cycles access was blocked
system.cpu1.icache.blocked_cycles::no_targets            0                       # number of cycles access was blocked
system.cpu1.icache.blocked::no_mshrs                0                       # number of cycles access was blocked
system.cpu1.icache.blocked::no_targets              0                       # number of cycles access was blocked
system.cpu1.icache.avg_blocked_cycles::no_mshrs          nan                       # average number of cycles each access was blocked
system.cpu1.icache.avg_blocked_cycles::no_targets          nan                       # average number of cycles each access was blocked
system.cpu1.icache.writebacks::.writebacks         3296                       # number of writebacks
system.cpu1.icache.writebacks::total             3296                       # number of writebacks
system.cpu1.icache.demand_mshr_misses::.cpu1.inst         3808                       # number of demand (read+write) MSHR misses
system.cpu1.icache.demand_mshr_misses::total         3808                       # number of demand (read+write) MSHR misses
system.cpu1.icache.overall_mshr_misses::.cpu1.inst         3808                       # number of overall MSHR misses
system.cpu1.icache.overall_mshr_misses::total         3808                       # number of overall MSHR misses
system.cpu1.icache.demand_mshr_miss_latency::.cpu1.inst    226180260                       # number of demand (read+write) MSHR miss cycles
system.cpu1.icache.demand_mshr_miss_latency::total    226180260                       # number of demand (read+write) MSHR miss cycles
system.cpu1.icache.overall_mshr_miss_latency::.cpu1.inst    226180260                       # number of overall MSHR miss cycles
system.cpu1.icache.overall_mshr_miss_latency::total    226180260                       # number of overall MSHR miss cycles
system.cpu1.icache.demand_mshr_miss_rate::.cpu1.inst     0.000257                       # mshr miss rate for demand accesses
system.cpu1.icache.demand_mshr_miss_rate::total     0.000257                       # mshr miss rate for demand accesses
system.cpu1.icache.overall_mshr_miss_rate::.cpu1.inst     0.000257                       # mshr miss rate for overall accesses
system.cpu1.icache.overall_mshr_miss_rate::total     0.000257                       # mshr miss rate for overall accesses
system.cpu1.icache.demand_avg_mshr_miss_latency::.cpu1.inst 59396.076681                       # average overall mshr miss latency
system.cpu1.icache.demand_avg_mshr_miss_latency::total 59396.076681                       # average overall mshr miss latency
system.cpu1.icache.overall_avg_mshr_miss_latency::.cpu1.inst 59396.076681                       # average overall mshr miss latency
system.cpu1.icache.overall_avg_mshr_miss_latency::total 59396.076681                       # average overall mshr miss latency
system.cpu1.icache.replacements                  3296                       # number of replacements
system.cpu1.icache.ReadReq_hits::.cpu1.inst     14833226                       # number of ReadReq hits
system.cpu1.icache.ReadReq_hits::total       14833226                       # number of ReadReq hits
system.cpu1.icache.ReadReq_misses::.cpu1.inst         3808                       # number of ReadReq misses
system.cpu1.icache.ReadReq_misses::total         3808                       # number of ReadReq misses
system.cpu1.icache.ReadReq_miss_latency::.cpu1.inst    228716388                       # number of ReadReq miss cycles
system.cpu1.icache.ReadReq_miss_latency::total    228716388                       # number of ReadReq miss cycles
system.cpu1.icache.ReadReq_accesses::.cpu1.inst     14837034                       # number of ReadReq accesses(hits+misses)
system.cpu1.icache.ReadReq_accesses::total     14837034                       # number of ReadReq accesses(hits+misses)
system.cpu1.icache.ReadReq_miss_rate::.cpu1.inst     0.000257                       # miss rate for ReadReq accesses
system.cpu1.icache.ReadReq_miss_rate::total     0.000257                       # miss rate for ReadReq accesses
system.cpu1.icache.ReadReq_avg_miss_latency::.cpu1.inst 60062.076681                       # average ReadReq miss latency
system.cpu1.icache.ReadReq_avg_miss_latency::total 60062.076681                       # average ReadReq miss latency
system.cpu1.icache.ReadReq_mshr_misses::.cpu1.inst         3808                       # number of ReadReq MSHR misses
system.cpu1.icache.ReadReq_mshr_misses::total         3808                       # number of ReadReq MSHR misses
system.cpu1.icache.ReadReq_mshr_miss_latency::.cpu1.inst    226180260                       # number of ReadReq MSHR miss cycles
system.cpu1.icache.ReadReq_mshr_miss_latency::total    226180260                       # number of ReadReq MSHR miss cycles
system.cpu1.icache.ReadReq_mshr_miss_rate::.cpu1.inst     0.000257                       # mshr miss rate for ReadReq accesses
system.cpu1.icache.ReadReq_mshr_miss_rate::total     0.000257                       # mshr miss rate for ReadReq accesses
system.cpu1.icache.ReadReq_avg_mshr_miss_latency::.cpu1.inst 59396.076681                       # average ReadReq mshr miss latency
system.cpu1.icache.ReadReq_avg_mshr_miss_latency::total 59396.076681                       # average ReadReq mshr miss latency
system.cpu1.icache.tags.pwrStateResidencyTicks::UNDEFINED  67659457149                       # Cumulative time (in ticks) in various power states
system.cpu1.icache.tags.tagsinuse          511.578823                       # Cycle average of tags in use
system.cpu1.icache.tags.total_refs           14837034                       # Total number of references to valid blocks.
system.cpu1.icache.tags.sampled_refs             3808                       # Sample count of references to valid blocks.
system.cpu1.icache.tags.avg_refs          3896.279937                       # Average number of references to valid blocks.
system.cpu1.icache.tags.warmup_cycle            88245                       # Cycle when the warmup percentage was hit.
system.cpu1.icache.tags.occ_blocks::.cpu1.inst   511.578823                       # Average occupied blocks per requestor
system.cpu1.icache.tags.occ_percent::.cpu1.inst     0.999177                       # Average percentage of cache occupancy
system.cpu1.icache.tags.occ_percent::total     0.999177                       # Average percentage of cache occupancy
system.cpu1.icache.tags.occ_task_id_blocks::1024          512                       # Occupied blocks per task id
system.cpu1.icache.tags.age_task_id_blocks_1024::4          512                       # Occupied blocks per task id
system.cpu1.icache.tags.occ_task_id_percent::1024            1                       # Percentage of cache occupancy per task id
system.cpu1.icache.tags.tag_accesses        118700080                       # Number of tag accesses
system.cpu1.icache.tags.data_accesses       118700080                       # Number of data accesses
system.cpu1.icache.tags.repl_invalid                0                       # Number of initial replacements
system.cpu1.icache.tags.repl_valid_tag              0                       # Number of local replacements
system.cpu1.icache.tags.repl_valid_data             0                       # Number of global replacements
system.cpu1.dtb.walker.pwrStateResidencyTicks::UNDEFINED  67659457149                       # Cumulative time (in ticks) in various power states
system.cpu1.interrupts.clk_domain.clock          5328                       # Clock period in ticks
system.cpu1.itb_walker_cache.pwrStateResidencyTicks::UNDEFINED  67659457149                       # Cumulative time (in ticks) in various power states
system.cpu1.itb_walker_cache.blocked_cycles::no_mshrs            0                       # number of cycles access was blocked
system.cpu1.itb_walker_cache.blocked_cycles::no_targets            0                       # number of cycles access was blocked
system.cpu1.itb_walker_cache.blocked::no_mshrs            0                       # number of cycles access was blocked
system.cpu1.itb_walker_cache.blocked::no_targets            0                       # number of cycles access was blocked
system.cpu1.itb_walker_cache.avg_blocked_cycles::no_mshrs          nan                       # average number of cycles each access was blocked
system.cpu1.itb_walker_cache.avg_blocked_cycles::no_targets          nan                       # average number of cycles each access was blocked
system.cpu1.itb_walker_cache.replacements            0                       # number of replacements
system.cpu1.itb_walker_cache.tags.pwrStateResidencyTicks::UNDEFINED  67659457149                       # Cumulative time (in ticks) in various power states
system.cpu1.itb_walker_cache.tags.tagsinuse            0                       # Cycle average of tags in use
system.cpu1.itb_walker_cache.tags.total_refs            0                       # Total number of references to valid blocks.
system.cpu1.itb_walker_cache.tags.sampled_refs            0                       # Sample count of references to valid blocks.
system.cpu1.itb_walker_cache.tags.avg_refs          nan                       # Average number of references to valid blocks.
system.cpu1.itb_walker_cache.tags.warmup_cycle            0                       # Cycle when the warmup percentage was hit.
system.cpu1.itb_walker_cache.tags.tag_accesses            0                       # Number of tag accesses
system.cpu1.itb_walker_cache.tags.data_accesses            0                       # Number of data accesses
system.cpu1.itb_walker_cache.tags.repl_invalid            0                       # Number of initial replacements
system.cpu1.itb_walker_cache.tags.repl_valid_tag            0                       # Number of local replacements
system.cpu1.itb_walker_cache.tags.repl_valid_data            0                       # Number of global replacements
system.cpu1.itb.walker.pwrStateResidencyTicks::UNDEFINED  67659457149                       # Cumulative time (in ticks) in various power states
system.cpu1.dtb_walker_cache.pwrStateResidencyTicks::UNDEFINED  67659457149                       # Cumulative time (in ticks) in various power states
system.cpu1.dtb_walker_cache.blocked_cycles::no_mshrs            0                       # number of cycles access was blocked
system.cpu1.dtb_walker_cache.blocked_cycles::no_targets            0                       # number of cycles access was blocked
system.cpu1.dtb_walker_cache.blocked::no_mshrs            0                       # number of cycles access was blocked
system.cpu1.dtb_walker_cache.blocked::no_targets            0                       # number of cycles access was blocked
system.cpu1.dtb_walker_cache.avg_blocked_cycles::no_mshrs          nan                       # average number of cycles each access was blocked
system.cpu1.dtb_walker_cache.avg_blocked_cycles::no_targets          nan                       # average number of cycles each access was blocked
system.cpu1.dtb_walker_cache.replacements            0                       # number of replacements
system.cpu1.dtb_walker_cache.tags.pwrStateResidencyTicks::UNDEFINED  67659457149                       # Cumulative time (in ticks) in various power states
system.cpu1.dtb_walker_cache.tags.tagsinuse            0                       # Cycle average of tags in use
system.cpu1.dtb_walker_cache.tags.total_refs            0                       # Total number of references to valid blocks.
system.cpu1.dtb_walker_cache.tags.sampled_refs            0                       # Sample count of references to valid blocks.
system.cpu1.dtb_walker_cache.tags.avg_refs          nan                       # Average number of references to valid blocks.
system.cpu1.dtb_walker_cache.tags.warmup_cycle            0                       # Cycle when the warmup percentage was hit.
system.cpu1.dtb_walker_cache.tags.tag_accesses            0                       # Number of tag accesses
system.cpu1.dtb_walker_cache.tags.data_accesses            0                       # Number of data accesses
system.cpu1.dtb_walker_cache.tags.repl_invalid            0                       # Number of initial replacements
system.cpu1.dtb_walker_cache.tags.repl_valid_tag            0                       # Number of local replacements
system.cpu1.dtb_walker_cache.tags.repl_valid_data            0                       # Number of global replacements
system.cpu1.dcache.pwrStateResidencyTicks::UNDEFINED  67659457149                       # Cumulative time (in ticks) in various power states
system.cpu1.dcache.demand_hits::.cpu1.data      3123216                       # number of demand (read+write) hits
system.cpu1.dcache.demand_hits::total         3123216                       # number of demand (read+write) hits
system.cpu1.dcache.overall_hits::.cpu1.data      3123216                       # number of overall hits
system.cpu1.dcache.overall_hits::total        3123216                       # number of overall hits
system.cpu1.dcache.demand_misses::.cpu1.data       391990                       # number of demand (read+write) misses
system.cpu1.dcache.demand_misses::total        391990                       # number of demand (read+write) misses
system.cpu1.dcache.overall_misses::.cpu1.data       391990                       # number of overall misses
system.cpu1.dcache.overall_misses::total       391990                       # number of overall misses
system.cpu1.dcache.demand_miss_latency::.cpu1.data   4939259796                       # number of demand (read+write) miss cycles
system.cpu1.dcache.demand_miss_latency::total   4939259796                       # number of demand (read+write) miss cycles
system.cpu1.dcache.overall_miss_latency::.cpu1.data   4939259796                       # number of overall miss cycles
system.cpu1.dcache.overall_miss_latency::total   4939259796                       # number of overall miss cycles
system.cpu1.dcache.demand_accesses::.cpu1.data      3515206                       # number of demand (read+write) accesses
system.cpu1.dcache.demand_accesses::total      3515206                       # number of demand (read+write) accesses
system.cpu1.dcache.overall_accesses::.cpu1.data      3515206                       # number of overall (read+write) accesses
system.cpu1.dcache.overall_accesses::total      3515206                       # number of overall (read+write) accesses
system.cpu1.dcache.demand_miss_rate::.cpu1.data     0.111513                       # miss rate for demand accesses
system.cpu1.dcache.demand_miss_rate::total     0.111513                       # miss rate for demand accesses
system.cpu1.dcache.overall_miss_rate::.cpu1.data     0.111513                       # miss rate for overall accesses
system.cpu1.dcache.overall_miss_rate::total     0.111513                       # miss rate for overall accesses
system.cpu1.dcache.demand_avg_miss_latency::.cpu1.data 12600.473981                       # average overall miss latency
system.cpu1.dcache.demand_avg_miss_latency::total 12600.473981                       # average overall miss latency
system.cpu1.dcache.overall_avg_miss_latency::.cpu1.data 12600.473981                       # average overall miss latency
system.cpu1.dcache.overall_avg_miss_latency::total 12600.473981                       # average overall miss latency
system.cpu1.dcache.blocked_cycles::no_mshrs            0                       # number of cycles access was blocked
system.cpu1.dcache.blocked_cycles::no_targets            0                       # number of cycles access was blocked
system.cpu1.dcache.blocked::no_mshrs                0                       # number of cycles access was blocked
system.cpu1.dcache.blocked::no_targets              0                       # number of cycles access was blocked
system.cpu1.dcache.avg_blocked_cycles::no_mshrs          nan                       # average number of cycles each access was blocked
system.cpu1.dcache.avg_blocked_cycles::no_targets          nan                       # average number of cycles each access was blocked
system.cpu1.dcache.writebacks::.writebacks       227950                       # number of writebacks
system.cpu1.dcache.writebacks::total           227950                       # number of writebacks
system.cpu1.dcache.demand_mshr_misses::.cpu1.data       391990                       # number of demand (read+write) MSHR misses
system.cpu1.dcache.demand_mshr_misses::total       391990                       # number of demand (read+write) MSHR misses
system.cpu1.dcache.overall_mshr_misses::.cpu1.data       391990                       # number of overall MSHR misses
system.cpu1.dcache.overall_mshr_misses::total       391990                       # number of overall MSHR misses
system.cpu1.dcache.demand_mshr_miss_latency::.cpu1.data   4678194456                       # number of demand (read+write) MSHR miss cycles
system.cpu1.dcache.demand_mshr_miss_latency::total   4678194456                       # number of demand (read+write) MSHR miss cycles
system.cpu1.dcache.overall_mshr_miss_latency::.cpu1.data   4678194456                       # number of overall MSHR miss cycles
system.cpu1.dcache.overall_mshr_miss_latency::total   4678194456                       # number of overall MSHR miss cycles
system.cpu1.dcache.demand_mshr_miss_rate::.cpu1.data     0.111513                       # mshr miss rate for demand accesses
system.cpu1.dcache.demand_mshr_miss_rate::total     0.111513                       # mshr miss rate for demand accesses
system.cpu1.dcache.overall_mshr_miss_rate::.cpu1.data     0.111513                       # mshr miss rate for overall accesses
system.cpu1.dcache.overall_mshr_miss_rate::total     0.111513                       # mshr miss rate for overall accesses
system.cpu1.dcache.demand_avg_mshr_miss_latency::.cpu1.data 11934.473981                       # average overall mshr miss latency
system.cpu1.dcache.demand_avg_mshr_miss_latency::total 11934.473981                       # average overall mshr miss latency
system.cpu1.dcache.overall_avg_mshr_miss_latency::.cpu1.data 11934.473981                       # average overall mshr miss latency
system.cpu1.dcache.overall_avg_mshr_miss_latency::total 11934.473981                       # average overall mshr miss latency
system.cpu1.dcache.replacements                391982                       # number of replacements
system.cpu1.dcache.ReadReq_hits::.cpu1.data      1826732                       # number of ReadReq hits
system.cpu1.dcache.ReadReq_hits::total        1826732                       # number of ReadReq hits
system.cpu1.dcache.ReadReq_misses::.cpu1.data       363356                       # number of ReadReq misses
system.cpu1.dcache.ReadReq_misses::total       363356                       # number of ReadReq misses
system.cpu1.dcache.ReadReq_miss_latency::.cpu1.data   4313911437                       # number of ReadReq miss cycles
system.cpu1.dcache.ReadReq_miss_latency::total   4313911437                       # number of ReadReq miss cycles
system.cpu1.dcache.ReadReq_accesses::.cpu1.data      2190088                       # number of ReadReq accesses(hits+misses)
system.cpu1.dcache.ReadReq_accesses::total      2190088                       # number of ReadReq accesses(hits+misses)
system.cpu1.dcache.ReadReq_miss_rate::.cpu1.data     0.165909                       # miss rate for ReadReq accesses
system.cpu1.dcache.ReadReq_miss_rate::total     0.165909                       # miss rate for ReadReq accesses
system.cpu1.dcache.ReadReq_avg_miss_latency::.cpu1.data 11872.410080                       # average ReadReq miss latency
system.cpu1.dcache.ReadReq_avg_miss_latency::total 11872.410080                       # average ReadReq miss latency
system.cpu1.dcache.ReadReq_mshr_misses::.cpu1.data       363356                       # number of ReadReq MSHR misses
system.cpu1.dcache.ReadReq_mshr_misses::total       363356                       # number of ReadReq MSHR misses
system.cpu1.dcache.ReadReq_mshr_miss_latency::.cpu1.data   4071916341                       # number of ReadReq MSHR miss cycles
system.cpu1.dcache.ReadReq_mshr_miss_latency::total   4071916341                       # number of ReadReq MSHR miss cycles
system.cpu1.dcache.ReadReq_mshr_miss_rate::.cpu1.data     0.165909                       # mshr miss rate for ReadReq accesses
system.cpu1.dcache.ReadReq_mshr_miss_rate::total     0.165909                       # mshr miss rate for ReadReq accesses
system.cpu1.dcache.ReadReq_avg_mshr_miss_latency::.cpu1.data 11206.410080                       # average ReadReq mshr miss latency
system.cpu1.dcache.ReadReq_avg_mshr_miss_latency::total 11206.410080                       # average ReadReq mshr miss latency
system.cpu1.dcache.WriteReq_hits::.cpu1.data      1296484                       # number of WriteReq hits
system.cpu1.dcache.WriteReq_hits::total       1296484                       # number of WriteReq hits
system.cpu1.dcache.WriteReq_misses::.cpu1.data        28634                       # number of WriteReq misses
[...]
system.mem_ctrls.wrQLenPdf::110                     0                       # What write queue length does an incoming req see
system.mem_ctrls.wrQLenPdf::111                     0                       # What write queue length does an incoming req see
system.mem_ctrls.wrQLenPdf::112                     0                       # What write queue length does an incoming req see
system.mem_ctrls.wrQLenPdf::113                     0                       # What write queue length does an incoming req see
system.mem_ctrls.wrQLenPdf::114                     0                       # What write queue length does an incoming req see
system.mem_ctrls.wrQLenPdf::115                     0                       # What write queue length does an incoming req see
system.mem_ctrls.wrQLenPdf::116                     0                       # What write queue length does an incoming req see
system.mem_ctrls.wrQLenPdf::117                     0                       # What write queue length does an incoming req see
system.mem_ctrls.wrQLenPdf::118                     0                       # What write queue length does an incoming req see
system.mem_ctrls.wrQLenPdf::119                     0                       # What write queue length does an incoming req see
system.mem_ctrls.wrQLenPdf::120                     0                       # What write queue length does an incoming req see
system.mem_ctrls.wrQLenPdf::121                     0                       # What write queue length does an incoming req see
system.mem_ctrls.wrQLenPdf::122                     0                       # What write queue length does an incoming req see
system.mem_ctrls.wrQLenPdf::123                     0                       # What write queue length does an incoming req see
system.mem_ctrls.wrQLenPdf::124                     0                       # What write queue length does an incoming req see
system.mem_ctrls.wrQLenPdf::125                     0                       # What write queue length does an incoming req see
system.mem_ctrls.wrQLenPdf::126                     0                       # What write queue length does an incoming req see
system.mem_ctrls.wrQLenPdf::127                     0                       # What write queue length does an incoming req see
system.mem_ctrls.bytesPerActivate::samples       359393                       # Bytes accessed per row activation
system.mem_ctrls.bytesPerActivate::mean            64                       # Bytes accessed per row activation
system.mem_ctrls.bytesPerActivate::gmean    64.000000                       # Bytes accessed per row activation
system.mem_ctrls.bytesPerActivate::64-71       359393    100.00%    100.00% # Bytes accessed per row activation
system.mem_ctrls.bytesPerActivate::total       359393                       # Bytes accessed per row activation
system.mem_ctrls.rdPerTurnAround::samples           89                       # Reads before turning the bus around for writes
system.mem_ctrls.rdPerTurnAround::mean    4014.550562                       # Reads before turning the bus around for writes
system.mem_ctrls.rdPerTurnAround::gmean   1930.192565                       # Reads before turning the bus around for writes
system.mem_ctrls.rdPerTurnAround::stdev  18852.023670                       # Reads before turning the bus around for writes
system.mem_ctrls.rdPerTurnAround::0-4095           84     94.38%     94.38% # Reads before turning the bus around for writes
system.mem_ctrls.rdPerTurnAround::4096-8191            3      3.37%     97.75% # Reads before turning the bus around for writes
system.mem_ctrls.rdPerTurnAround::8192-12287            1      1.12%     98.88% # Reads before turning the bus around for writes
system.mem_ctrls.rdPerTurnAround::176128-180223            1      1.12%    100.00% # Reads before turning the bus around for writes
system.mem_ctrls.rdPerTurnAround::total            89                       # Reads before turning the bus around for writes
system.mem_ctrls.wrPerTurnAround::samples           89                       # Writes before turning the bus around for reads
system.mem_ctrls.wrPerTurnAround::mean             18                       # Writes before turning the bus around for reads
system.mem_ctrls.wrPerTurnAround::gmean     18.000000                       # Writes before turning the bus around for reads
system.mem_ctrls.wrPerTurnAround::18               89    100.00%    100.00% # Writes before turning the bus around for reads
system.mem_ctrls.wrPerTurnAround::total            89                       # Writes before turning the bus around for reads
system.mem_ctrls.bytesReadDRAM               22898624                       # Total number of bytes read from DRAM
system.mem_ctrls.bytesReadWrQ                     128                       # Total number of bytes read from write queue
system.mem_ctrls.bytesWritten                  102528                       # Total number of bytes written to DRAM
system.mem_ctrls.bytesReadSys                22898752                       # Total read bytes from the system interface side
system.mem_ctrls.bytesWrittenSys               106048                       # Total written bytes from the system interface side
system.mem_ctrls.avgRdBW                       338.44                       # Average DRAM read bandwidth in MiByte/s
system.mem_ctrls.avgWrBW                         1.52                       # Average achieved write bandwidth in MiByte/s
system.mem_ctrls.avgRdBWSys                    338.44                       # Average system read bandwidth in MiByte/s
system.mem_ctrls.avgWrBWSys                      1.57                       # Average system write bandwidth in MiByte/s
system.mem_ctrls.peakBW                      19207.00                       # Theoretical peak bandwidth in MiByte/s
system.mem_ctrls.busUtil                         1.77                       # Data bus utilization in percentage
system.mem_ctrls.busUtilRead                     1.76                       # Data bus utilization in percentage for reads
system.mem_ctrls.busUtilWrite                    0.01                       # Data bus utilization in percentage for writes
system.mem_ctrls.totGap                   67659375231                       # Total gap between requests
system.mem_ctrls.avgGap                     188230.28                       # Average gap between requests
system.mem_ctrls.masterReadBytes::.cpu0.inst        28736                       # Per-master bytes read from memory
system.mem_ctrls.masterReadBytes::.cpu0.data     22237120                       # Per-master bytes read from memory
system.mem_ctrls.masterReadBytes::.cpu1.inst       161088                       # Per-master bytes read from memory
system.mem_ctrls.masterReadBytes::.cpu1.data       471680                       # Per-master bytes read from memory
system.mem_ctrls.masterWriteBytes::.writebacks       102528                       # Per-master bytes write to memory
system.mem_ctrls.masterReadRate::.cpu0.inst 424715.201848537370                       # Per-master bytes read from memory rate (Bytes/sec)
system.mem_ctrls.masterReadRate::.cpu0.data 328662406.365887641907                       # Per-master bytes read from memory rate (Bytes/sec)
system.mem_ctrls.masterReadRate::.cpu1.inst 2380864.505685453303                       # Per-master bytes read from memory rate (Bytes/sec)
system.mem_ctrls.masterReadRate::.cpu1.data 6971383.157291136682                       # Per-master bytes read from memory rate (Bytes/sec)
system.mem_ctrls.masterWriteRate::.writebacks 1515353.570960705634                       # Per-master bytes write to memory rate (Bytes/sec)
system.mem_ctrls.masterReadAccesses::.cpu0.inst          449                       # Per-master read serviced memory accesses
system.mem_ctrls.masterReadAccesses::.cpu0.data       347457                       # Per-master read serviced memory accesses
system.mem_ctrls.masterReadAccesses::.cpu1.inst         2517                       # Per-master read serviced memory accesses
system.mem_ctrls.masterReadAccesses::.cpu1.data         7370                       # Per-master read serviced memory accesses
system.mem_ctrls.masterWriteAccesses::.writebacks         1657                       # Per-master write serviced memory accesses
system.mem_ctrls.masterReadTotalLat::.cpu0.inst     16022458                       # Per-master read total memory access latency
system.mem_ctrls.masterReadTotalLat::.cpu0.data  13998227225                       # Per-master read total memory access latency
system.mem_ctrls.masterReadTotalLat::.cpu1.inst     91861526                       # Per-master read total memory access latency
system.mem_ctrls.masterReadTotalLat::.cpu1.data    281012601                       # Per-master read total memory access latency
system.mem_ctrls.masterWriteTotalLat::.writebacks 2157135914095                       # Per-master write total memory access latency
system.mem_ctrls.masterReadAvgLat::.cpu0.inst     35684.76                       # Per-master read average memory access latency
system.mem_ctrls.masterReadAvgLat::.cpu0.data     40287.65                       # Per-master read average memory access latency
system.mem_ctrls.masterReadAvgLat::.cpu1.inst     36496.43                       # Per-master read average memory access latency
system.mem_ctrls.masterReadAvgLat::.cpu1.data     38129.25                       # Per-master read average memory access latency
system.mem_ctrls.masterWriteAvgLat::.writebacks 1301832175.07                       # Per-master write average memory access latency
system.mem_ctrls.pageHitRate                     0.00                       # Row buffer hit rate, read and write combined
system.mem_ctrls.rank1.actEnergy         280102913.999987                       # Energy for activate commands per rank (pJ)
system.mem_ctrls.rank1.preEnergy         494489375.100086                       # Energy for precharge commands per rank (pJ)
system.mem_ctrls.rank1.readEnergy        490636666.799955                       # Energy for read commands per rank (pJ)
system.mem_ctrls.rank1.writeEnergy       1769292.000000                       # Energy for write commands per rank (pJ)
system.mem_ctrls.rank1.refreshEnergy     5873184726.023398                       # Energy for refresh commands per rank (pJ)
system.mem_ctrls.rank1.actBackEnergy     4085849450.222459                       # Energy for active background per rank (pJ)
system.mem_ctrls.rank1.preBackEnergy     19263359108.985794                       # Energy for precharge background per rank (pJ)
system.mem_ctrls.rank1.actPowerDownEnergy            0                       # Energy for active power-down per rank (pJ)
system.mem_ctrls.rank1.prePowerDownEnergy            0                       # Energy for precharge power-down per rank (pJ)
system.mem_ctrls.rank1.selfRefreshEnergy            0                       # Energy for self refresh per rank (pJ)
system.mem_ctrls.rank1.totalEnergy       30489391533.132591                       # Total energy per rank (pJ)
system.mem_ctrls.rank1.averagePower        450.630153                       # Core power per rank (mW)
system.mem_ctrls.rank1.totalIdleTime                0                       # Total Idle time Per DRAM Rank
system.mem_ctrls.rank1.memoryStateTime::IDLE  56381654221                       # Time in different power states
system.mem_ctrls.rank1.memoryStateTime::REF   3041500000                       # Time in different power states
system.mem_ctrls.rank1.memoryStateTime::SREF            0                       # Time in different power states
system.mem_ctrls.rank1.memoryStateTime::PRE_PDN            0                       # Time in different power states
system.mem_ctrls.rank1.memoryStateTime::ACT   8236302928                       # Time in different power states
system.mem_ctrls.rank1.memoryStateTime::ACT_PDN            0                       # Time in different power states
system.mem_ctrls.rank0.actEnergy         280325904.767987                       # Energy for activate commands per rank (pJ)
system.mem_ctrls.rank0.preEnergy         494883039.571286                       # Energy for precharge commands per rank (pJ)
system.mem_ctrls.rank0.readEnergy        490749125.798355                       # Energy for read commands per rank (pJ)
system.mem_ctrls.rank0.writeEnergy       2009915.712000                       # Energy for write commands per rank (pJ)
system.mem_ctrls.rank0.refreshEnergy     5873184726.023398                       # Energy for refresh commands per rank (pJ)
system.mem_ctrls.rank0.actBackEnergy     4087322420.798453                       # Energy for active background per rank (pJ)
system.mem_ctrls.rank0.preBackEnergy     19262342235.897907                       # Energy for precharge background per rank (pJ)
system.mem_ctrls.rank0.actPowerDownEnergy            0                       # Energy for active power-down per rank (pJ)
system.mem_ctrls.rank0.prePowerDownEnergy            0                       # Energy for precharge power-down per rank (pJ)
system.mem_ctrls.rank0.selfRefreshEnergy            0                       # Energy for self refresh per rank (pJ)
system.mem_ctrls.rank0.totalEnergy       30490817368.570038                       # Total energy per rank (pJ)
system.mem_ctrls.rank0.averagePower        450.651227                       # Core power per rank (mW)
system.mem_ctrls.rank0.totalIdleTime                0                       # Total Idle time Per DRAM Rank
system.mem_ctrls.rank0.memoryStateTime::IDLE  56377806628                       # Time in different power states
system.mem_ctrls.rank0.memoryStateTime::REF   3041500000                       # Time in different power states
system.mem_ctrls.rank0.memoryStateTime::SREF            0                       # Time in different power states
system.mem_ctrls.rank0.memoryStateTime::PRE_PDN            0                       # Time in different power states
system.mem_ctrls.rank0.memoryStateTime::ACT   8240150521                       # Time in different power states
system.mem_ctrls.rank0.memoryStateTime::ACT_PDN            0                       # Time in different power states
system.cpu_clk_domain.clock                       333                       # Clock period in ticks
system.tol2bus.pwrStateResidencyTicks::UNDEFINED  67659457149                       # Cumulative time (in ticks) in various power states
system.tol2bus.trans_dist::ReadResp            715273                       # Transaction distribution
system.tol2bus.trans_dist::WritebackDirty       230138                       # Transaction distribution
system.tol2bus.trans_dist::WritebackClean         3314                       # Transaction distribution
system.tol2bus.trans_dist::CleanEvict          608606                       # Transaction distribution
system.tol2bus.trans_dist::ReadExReq            28890                       # Transaction distribution
system.tol2bus.trans_dist::ReadExResp           28890                       # Transaction distribution
system.tol2bus.trans_dist::ReadCleanReq          4257                       # Transaction distribution
system.tol2bus.trans_dist::ReadSharedReq       711016                       # Transaction distribution
system.tol2bus.pkt_count_system.cpu0.icache.mem_side::system.l2.cpu_side          916                       # Packet count per connected master and slave (bytes)
system.tol2bus.pkt_count_system.cpu0.dcache.mem_side::system.l2.cpu_side      1043740                       # Packet count per connected master and slave (bytes)
system.tol2bus.pkt_count_system.cpu1.icache.mem_side::system.l2.cpu_side        10912                       # Packet count per connected master and slave (bytes)
system.tol2bus.pkt_count_system.cpu1.dcache.mem_side::system.l2.cpu_side      1175962                       # Packet count per connected master and slave (bytes)
system.tol2bus.pkt_count::total               2231530                       # Packet count per connected master and slave (bytes)
system.tol2bus.pkt_size_system.cpu0.icache.mem_side::system.l2.cpu_side        29888                       # Cumulative packet size per connected master and slave (bytes)
system.tol2bus.pkt_size_system.cpu0.dcache.mem_side::system.l2.cpu_side     22300608                       # Cumulative packet size per connected master and slave (bytes)
system.tol2bus.pkt_size_system.cpu1.icache.mem_side::system.l2.cpu_side       454656                       # Cumulative packet size per connected master and slave (bytes)
system.tol2bus.pkt_size_system.cpu1.dcache.mem_side::system.l2.cpu_side     39676160                       # Cumulative packet size per connected master and slave (bytes)
system.tol2bus.pkt_size::total               62461312                       # Cumulative packet size per connected master and slave (bytes)
system.tol2bus.snoops                           98854                       # Total snoops (count)
system.tol2bus.snoopTraffic                    106048                       # Total snoop traffic (bytes)
system.tol2bus.snoop_fanout::samples           843017                       # Request fanout histogram
system.tol2bus.snoop_fanout::mean            0.000342                       # Request fanout histogram
system.tol2bus.snoop_fanout::stdev           0.018480                       # Request fanout histogram
system.tol2bus.snoop_fanout::underflows             0      0.00%      0.00% # Request fanout histogram
system.tol2bus.snoop_fanout::0                 842729     99.97%     99.97% # Request fanout histogram
system.tol2bus.snoop_fanout::1                    288      0.03%    100.00% # Request fanout histogram
system.tol2bus.snoop_fanout::2                      0      0.00%    100.00% # Request fanout histogram
system.tol2bus.snoop_fanout::3                      0      0.00%    100.00% # Request fanout histogram
system.tol2bus.snoop_fanout::4                      0      0.00%    100.00% # Request fanout histogram
system.tol2bus.snoop_fanout::5                      0      0.00%    100.00% # Request fanout histogram
system.tol2bus.snoop_fanout::6                      0      0.00%    100.00% # Request fanout histogram
system.tol2bus.snoop_fanout::7                      0      0.00%    100.00% # Request fanout histogram
system.tol2bus.snoop_fanout::8                      0      0.00%    100.00% # Request fanout histogram
system.tol2bus.snoop_fanout::overflows              0      0.00%    100.00% # Request fanout histogram
system.tol2bus.snoop_fanout::min_value              0                       # Request fanout histogram
system.tol2bus.snoop_fanout::max_value              1                       # Request fanout histogram
system.tol2bus.snoop_fanout::total             843017                       # Request fanout histogram
system.tol2bus.reqLayer0.occupancy          649668681                       # Layer occupancy (ticks)
system.tol2bus.reqLayer0.utilization              1.0                       # Layer utilization (%)
system.tol2bus.respLayer5.occupancy         391598010                       # Layer occupancy (ticks)
system.tol2bus.respLayer5.utilization             0.6                       # Layer utilization (%)
system.tol2bus.respLayer4.occupancy           3804192                       # Layer occupancy (ticks)
system.tol2bus.respLayer4.utilization             0.0                       # Layer utilization (%)
system.tol2bus.respLayer1.occupancy         347793180                       # Layer occupancy (ticks)
system.tol2bus.respLayer1.utilization             0.5                       # Layer utilization (%)
system.tol2bus.respLayer0.occupancy            448551                       # Layer occupancy (ticks)
system.tol2bus.respLayer0.utilization             0.0                       # Layer utilization (%)

---------- End Simulation Statistics   ----------
