
---------- Begin Simulation Statistics ----------
final_tick                               2451771867240                       # Number of ticks from beginning of simulation (restored from checkpoints and never reset)
host_inst_rate                                 585012                       # Simulator instruction rate (inst/s)
host_mem_usage                                8615464                       # Number of bytes of host memory used
host_op_rate                                  1042459                       # Simulator op (including micro ops) rate (op/s)
host_seconds                                  1756.87                       # Real time elapsed on the host
host_tick_rate                             1395537230                       # Simulator tick rate (ticks/s)
sim_freq                                 1000000000000                       # Frequency of simulated ticks
sim_insts                                  1027788099                       # Number of instructions simulated
sim_ops                                    1831461231                       # Number of ops (including micro ops) simulated
sim_seconds                                  2.451772                       # Number of seconds simulated
sim_ticks                                2451771867240                       # Number of ticks simulated
system.cpu0.Branches                          2780018                       # Number of branches fetched
system.cpu0.committedInsts                   27788099                       # Number of instructions committed
system.cpu0.committedOps                     52797721                       # Number of ops (including micro ops) committed
system.cpu0.dtb.rdAccesses                   11113063                       # TLB accesses on read requests
system.cpu0.dtb.rdMisses                         5446                       # TLB misses on read requests
system.cpu0.dtb.wrAccesses                    5557395                       # TLB accesses on write requests
system.cpu0.dtb.wrMisses                            8                       # TLB misses on write requests
system.cpu0.idle_fraction                    0.972905                       # Percentage of idle cycles
system.cpu0.itb.rdAccesses                          0                       # TLB accesses on read requests
system.cpu0.itb.rdMisses                            0                       # TLB misses on read requests
system.cpu0.itb.wrAccesses                   38902351                       # TLB accesses on write requests
system.cpu0.itb.wrMisses                           46                       # TLB misses on write requests
system.cpu0.not_idle_fraction                0.027095                       # Percentage of non-idle cycles
system.cpu0.numCycles                       199495247                       # number of cpu cycles simulated
system.cpu0.numWorkItemsCompleted                   0                       # number of work items this cpu completed
system.cpu0.numWorkItemsStarted                     0                       # number of work items this cpu started
system.cpu0.num_busy_cycles              5405417.982704                       # Number of busy cycles
system.cpu0.num_cc_register_reads            13899961                       # number of times the CC registers were read
system.cpu0.num_cc_register_writes           16672913                       # number of times the CC registers were written
system.cpu0.num_conditional_control_insts      2779471                       # number of instructions that are conditional controls
system.cpu0.num_fp_alu_accesses                  1214                       # Number of float alu accesses
system.cpu0.num_fp_insts                         1214                       # number of float instructions
system.cpu0.num_fp_register_reads                1401                       # number of times the floating registers were read
system.cpu0.num_fp_register_writes                679                       # number of times the floating registers were written
system.cpu0.num_func_calls                        384                       # number of times a function call or return occured
system.cpu0.num_idle_cycles              194089829.017296                       # Number of idle cycles
system.cpu0.num_int_alu_accesses             52796880                       # Number of integer alu accesses
system.cpu0.num_int_insts                    52796880                       # number of integer instructions
system.cpu0.num_int_register_reads          105592520                       # number of times the integer registers were read
system.cpu0.num_int_register_writes          44459432                       # number of times the integer registers were written
system.cpu0.num_load_insts                   11113060                       # Number of load instructions
system.cpu0.num_mem_refs                     16670454                       # number of memory refs
system.cpu0.num_store_insts                   5557394                       # Number of store instructions
system.cpu0.num_vec_alu_accesses                    0                       # Number of vector alu accesses
system.cpu0.num_vec_insts                           0                       # number of vector instructions
system.cpu0.num_vec_register_reads                  0                       # number of times the vector registers were read
system.cpu0.num_vec_register_writes                 0                       # number of times the vector registers were written
system.cpu0.op_class::No_OpClass                  336      0.00%      0.00% # Class of executed instruction
system.cpu0.op_class::IntAlu                 36126368     68.42%     68.42% # Class of executed instruction
system.cpu0.op_class::IntMult                       5      0.00%     68.42% # Class of executed instruction
system.cpu0.op_class::IntDiv                       28      0.00%     68.42% # Class of executed instruction
system.cpu0.op_class::FloatAdd                    144      0.00%     68.43% # Class of executed instruction
system.cpu0.op_class::FloatCmp                      0      0.00%     68.43% # Class of executed instruction
system.cpu0.op_class::FloatCvt                      0      0.00%     68.43% # Class of executed instruction
system.cpu0.op_class::FloatMult                     0      0.00%     68.43% # Class of executed instruction
system.cpu0.op_class::FloatMultAcc                  0      0.00%     68.43% # Class of executed instruction
system.cpu0.op_class::FloatDiv                      0      0.00%     68.43% # Class of executed instruction
system.cpu0.op_class::FloatMisc                     0      0.00%     68.43% # Class of executed instruction
system.cpu0.op_class::FloatSqrt                     0      0.00%     68.43% # Class of executed instruction
system.cpu0.op_class::SimdAdd                       0      0.00%     68.43% # Class of executed instruction
system.cpu0.op_class::SimdAddAcc                    0      0.00%     68.43% # Class of executed instruction
system.cpu0.op_class::SimdAlu                     104      0.00%     68.43% # Class of executed instruction
system.cpu0.op_class::SimdCmp                       0      0.00%     68.43% # Class of executed instruction
system.cpu0.op_class::SimdCvt                      54      0.00%     68.43% # Class of executed instruction
system.cpu0.op_class::SimdMisc                    228      0.00%     68.43% # Class of executed instruction
system.cpu0.op_class::SimdMult                      0      0.00%     68.43% # Class of executed instruction
system.cpu0.op_class::SimdMultAcc                   0      0.00%     68.43% # Class of executed instruction
system.cpu0.op_class::SimdShift                     0      0.00%     68.43% # Class of executed instruction
system.cpu0.op_class::SimdShiftAcc                  0      0.00%     68.43% # Class of executed instruction
system.cpu0.op_class::SimdDiv                       0      0.00%     68.43% # Class of executed instruction
system.cpu0.op_class::SimdSqrt                      0      0.00%     68.43% # Class of executed instruction
system.cpu0.op_class::SimdFloatAdd                  0      0.00%     68.43% # Class of executed instruction
system.cpu0.op_class::SimdFloatAlu                  0      0.00%     68.43% # Class of executed instruction
system.cpu0.op_class::SimdFloatCmp                  0      0.00%     68.43% # Class of executed instruction
system.cpu0.op_class::SimdFloatCvt                  0      0.00%     68.43% # Class of executed instruction
system.cpu0.op_class::SimdFloatDiv                  0      0.00%     68.43% # Class of executed instruction
system.cpu0.op_class::SimdFloatMisc                 0      0.00%     68.43% # Class of executed instruction
system.cpu0.op_class::SimdFloatMult                 0      0.00%     68.43% # Class of executed instruction
system.cpu0.op_class::SimdFloatMultAcc              0      0.00%     68.43% # Class of executed instruction
system.cpu0.op_class::SimdFloatSqrt                 0      0.00%     68.43% # Class of executed instruction
system.cpu0.op_class::SimdReduceAdd                 0      0.00%     68.43% # Class of executed instruction
system.cpu0.op_class::SimdReduceAlu                 0      0.00%     68.43% # Class of executed instruction
system.cpu0.op_class::SimdReduceCmp                 0      0.00%     68.43% # Class of executed instruction
system.cpu0.op_class::SimdFloatReduceAdd            0      0.00%     68.43% # Class of executed instruction
system.cpu0.op_class::SimdFloatReduceCmp            0      0.00%     68.43% # Class of executed instruction
system.cpu0.op_class::SimdAes                       0      0.00%     68.43% # Class of executed instruction
system.cpu0.op_class::SimdAesMix                    0      0.00%     68.43% # Class of executed instruction
system.cpu0.op_class::SimdSha1Hash                  0      0.00%     68.43% # Class of executed instruction
system.cpu0.op_class::SimdSha1Hash2                 0      0.00%     68.43% # Class of executed instruction
system.cpu0.op_class::SimdSha256Hash                0      0.00%     68.43% # Class of executed instruction
system.cpu0.op_class::SimdSha256Hash2               0      0.00%     68.43% # Class of executed instruction
system.cpu0.op_class::SimdShaSigma2                 0      0.00%     68.43% # Class of executed instruction
system.cpu0.op_class::SimdShaSigma3                 0      0.00%     68.43% # Class of executed instruction
system.cpu0.op_class::SimdPredAlu                   0      0.00%     68.43% # Class of executed instruction
system.cpu0.op_class::MemRead                11113000     21.05%     89.47% # Class of executed instruction
system.cpu0.op_class::MemWrite                5556913     10.52%    100.00% # Class of executed instruction
system.cpu0.op_class::FloatMemRead                 60      0.00%    100.00% # Class of executed instruction
system.cpu0.op_class::FloatMemWrite               481      0.00%    100.00% # Class of executed instruction
system.cpu0.op_class::IprAccess                     0      0.00%    100.00% # Class of executed instruction
system.cpu0.op_class::InstPrefetch                  0      0.00%    100.00% # Class of executed instruction
system.cpu0.op_class::total                  52797721                       # Class of executed instruction
system.cpu0.workload.numSyscalls                   12                       # Number of system calls
system.cpu1.Branches                        235945707                       # Number of branches fetched
system.cpu1.committedInsts                 1000000000                       # Number of instructions committed
system.cpu1.committedOps                   1778663510                       # Number of ops (including micro ops) committed
system.cpu1.dtb.rdAccesses                  301390361                       # TLB accesses on read requests
system.cpu1.dtb.rdMisses                     18835341                       # TLB misses on read requests
system.cpu1.dtb.wrAccesses                  114776714                       # TLB accesses on write requests
system.cpu1.dtb.wrMisses                       552180                       # TLB misses on write requests
system.cpu1.idle_fraction                           0                       # Percentage of idle cycles
system.cpu1.itb.rdAccesses                          0                       # TLB accesses on read requests
system.cpu1.itb.rdMisses                            0                       # TLB misses on read requests
system.cpu1.itb.wrAccesses                 1278068988                       # TLB accesses on write requests
system.cpu1.itb.wrMisses                           61                       # TLB misses on write requests
system.cpu1.not_idle_fraction                       1                       # Percentage of non-idle cycles
system.cpu1.numCycles                      7362678280                       # number of cpu cycles simulated
system.cpu1.numWorkItemsCompleted                   0                       # number of work items this cpu completed
system.cpu1.numWorkItemsStarted                     0                       # number of work items this cpu started
system.cpu1.num_busy_cycles                7362678280                       # Number of busy cycles
system.cpu1.num_cc_register_reads          1194687207                       # number of times the CC registers were read
system.cpu1.num_cc_register_writes          549028320                       # number of times the CC registers were written
system.cpu1.num_conditional_control_insts    187919433                       # number of instructions that are conditional controls
system.cpu1.num_fp_alu_accesses              16784849                       # Number of float alu accesses
system.cpu1.num_fp_insts                     16784849                       # number of float instructions
system.cpu1.num_fp_register_reads            17600009                       # number of times the floating registers were read
system.cpu1.num_fp_register_writes           10349970                       # number of times the floating registers were written
system.cpu1.num_func_calls                   33951343                       # number of times a function call or return occured
system.cpu1.num_idle_cycles                         0                       # Number of idle cycles
system.cpu1.num_int_alu_accesses           1751848982                       # Number of integer alu accesses
system.cpu1.num_int_insts                  1751848982                       # number of integer instructions
system.cpu1.num_int_register_reads         3533242593                       # number of times the integer registers were read
system.cpu1.num_int_register_writes        1411266192                       # number of times the integer registers were written
system.cpu1.num_load_insts                  301350804                       # Number of load instructions
system.cpu1.num_mem_refs                    416127511                       # number of memory refs
system.cpu1.num_store_insts                 114776707                       # Number of store instructions
system.cpu1.num_vec_alu_accesses                    0                       # Number of vector alu accesses
system.cpu1.num_vec_insts                           0                       # number of vector instructions
system.cpu1.num_vec_register_reads                  0                       # number of times the vector registers were read
system.cpu1.num_vec_register_writes                 0                       # number of times the vector registers were written
system.cpu1.op_class::No_OpClass             20195478      1.14%      1.14% # Class of executed instruction
system.cpu1.op_class::IntAlu               1326816945     74.60%     75.73% # Class of executed instruction
system.cpu1.op_class::IntMult                 3164679      0.18%     75.91% # Class of executed instruction
system.cpu1.op_class::IntDiv                  4825055      0.27%     76.18% # Class of executed instruction
system.cpu1.op_class::FloatAdd                2088766      0.12%     76.30% # Class of executed instruction
system.cpu1.op_class::FloatCmp                      0      0.00%     76.30% # Class of executed instruction
system.cpu1.op_class::FloatCvt                      0      0.00%     76.30% # Class of executed instruction
system.cpu1.op_class::FloatMult                     0      0.00%     76.30% # Class of executed instruction
system.cpu1.op_class::FloatMultAcc                  0      0.00%     76.30% # Class of executed instruction
system.cpu1.op_class::FloatDiv                      0      0.00%     76.30% # Class of executed instruction
system.cpu1.op_class::FloatMisc                     0      0.00%     76.30% # Class of executed instruction
system.cpu1.op_class::FloatSqrt                     0      0.00%     76.30% # Class of executed instruction
system.cpu1.op_class::SimdAdd                       0      0.00%     76.30% # Class of executed instruction
system.cpu1.op_class::SimdAddAcc                    0      0.00%     76.30% # Class of executed instruction
system.cpu1.op_class::SimdAlu                  356154      0.02%     76.32% # Class of executed instruction
system.cpu1.op_class::SimdCmp                      32      0.00%     76.32% # Class of executed instruction
system.cpu1.op_class::SimdCvt                  780858      0.04%     76.36% # Class of executed instruction
system.cpu1.op_class::SimdMisc                4308032      0.24%     76.60% # Class of executed instruction
system.cpu1.op_class::SimdMult                      0      0.00%     76.60% # Class of executed instruction
system.cpu1.op_class::SimdMultAcc                   0      0.00%     76.60% # Class of executed instruction
system.cpu1.op_class::SimdShift                     0      0.00%     76.60% # Class of executed instruction
system.cpu1.op_class::SimdShiftAcc                  0      0.00%     76.60% # Class of executed instruction
system.cpu1.op_class::SimdDiv                       0      0.00%     76.60% # Class of executed instruction
system.cpu1.op_class::SimdSqrt                      0      0.00%     76.60% # Class of executed instruction
system.cpu1.op_class::SimdFloatAdd                  0      0.00%     76.60% # Class of executed instruction
system.cpu1.op_class::SimdFloatAlu                  0      0.00%     76.60% # Class of executed instruction
system.cpu1.op_class::SimdFloatCmp                  0      0.00%     76.60% # Class of executed instruction
system.cpu1.op_class::SimdFloatCvt                  0      0.00%     76.60% # Class of executed instruction
system.cpu1.op_class::SimdFloatDiv                  0      0.00%     76.60% # Class of executed instruction
system.cpu1.op_class::SimdFloatMisc                 0      0.00%     76.60% # Class of executed instruction
system.cpu1.op_class::SimdFloatMult                 0      0.00%     76.60% # Class of executed instruction
system.cpu1.op_class::SimdFloatMultAcc              0      0.00%     76.60% # Class of executed instruction
system.cpu1.op_class::SimdFloatSqrt                 0      0.00%     76.60% # Class of executed instruction
system.cpu1.op_class::SimdReduceAdd                 0      0.00%     76.60% # Class of executed instruction
system.cpu1.op_class::SimdReduceAlu                 0      0.00%     76.60% # Class of executed instruction
system.cpu1.op_class::SimdReduceCmp                 0      0.00%     76.60% # Class of executed instruction
system.cpu1.op_class::SimdFloatReduceAdd            0      0.00%     76.60% # Class of executed instruction
system.cpu1.op_class::SimdFloatReduceCmp            0      0.00%     76.60% # Class of executed instruction
system.cpu1.op_class::SimdAes                       0      0.00%     76.60% # Class of executed instruction
system.cpu1.op_class::SimdAesMix                    0      0.00%     76.60% # Class of executed instruction
system.cpu1.op_class::SimdSha1Hash                  0      0.00%     76.60% # Class of executed instruction
system.cpu1.op_class::SimdSha1Hash2                 0      0.00%     76.60% # Class of executed instruction
system.cpu1.op_class::SimdSha256Hash                0      0.00%     76.60% # Class of executed instruction
system.cpu1.op_class::SimdSha256Hash2               0      0.00%     76.60% # Class of executed instruction
system.cpu1.op_class::SimdShaSigma2                 0      0.00%     76.60% # Class of executed instruction
system.cpu1.op_class::SimdShaSigma3                 0      0.00%     76.60% # Class of executed instruction
system.cpu1.op_class::SimdPredAlu                   0      0.00%     76.60% # Class of executed instruction
system.cpu1.op_class::MemRead               298976779     16.81%     93.41% # Class of executed instruction
system.cpu1.op_class::MemWrite              109122620      6.14%     99.55% # Class of executed instruction
system.cpu1.op_class::FloatMemRead            2374025      0.13%     99.68% # Class of executed instruction
system.cpu1.op_class::FloatMemWrite           5654087      0.32%    100.00% # Class of executed instruction
system.cpu1.op_class::IprAccess                     0      0.00%    100.00% # Class of executed instruction
system.cpu1.op_class::InstPrefetch                  0      0.00%    100.00% # Class of executed instruction
system.cpu1.op_class::total                1778663510                       # Class of executed instruction
system.cpu1.workload.numSyscalls                  307                       # Number of system calls
system.membus.snoop_filter.hit_multi_requests            0                       # Number of requests hitting in the snoop filter with multiple (>1) holders of the requested data.
system.membus.snoop_filter.hit_multi_snoops            0                       # Number of snoops hitting in the snoop filter with multiple (>1) holders of the requested data.
system.membus.snoop_filter.hit_single_requests      1280757                       # Number of requests hitting in the snoop filter with a single holder of the requested data.
system.membus.snoop_filter.hit_single_snoops            0                       # Number of snoops hitting in the snoop filter with a single holder of the requested data.
system.membus.snoop_filter.tot_requests       2824576                       # Total number of requests made to the snoop filter.
system.membus.snoop_filter.tot_snoops               0                       # Total number of snoops made to the snoop filter.
system.tol2bus.snoop_filter.hit_multi_requests            0                       # Number of requests hitting in the snoop filter with multiple (>1) holders of the requested data.
system.tol2bus.snoop_filter.hit_multi_snoops            0                       # Number of snoops hitting in the snoop filter with multiple (>1) holders of the requested data.
system.tol2bus.snoop_filter.hit_single_requests    124324548                       # Number of requests hitting in the snoop filter with a single holder of the requested data.
system.tol2bus.snoop_filter.hit_single_snoops         1164                       # Number of snoops hitting in the snoop filter with a single holder of the requested data.
system.tol2bus.snoop_filter.tot_requests    248650055                       # Total number of requests made to the snoop filter.
system.tol2bus.snoop_filter.tot_snoops           1164                       # Total number of snoops made to the snoop filter.
system.membus.pwrStateResidencyTicks::UNDEFINED 2451771867240                       # Cumulative time (in ticks) in various power states
system.membus.trans_dist::ReadResp            1193937                       # Transaction distribution
system.membus.trans_dist::WritebackDirty       391225                       # Transaction distribution
system.membus.trans_dist::CleanEvict           889532                       # Transaction distribution
system.membus.trans_dist::ReadExReq            349882                       # Transaction distribution
system.membus.trans_dist::ReadExResp           349882                       # Transaction distribution
system.membus.trans_dist::ReadSharedReq       1193937                       # Transaction distribution
system.membus.pkt_count_system.l2.mem_side::system.mem_ctrls.port      4368395                       # Packet count per connected master and slave (bytes)
system.membus.pkt_count_system.l2.mem_side::total      4368395                       # Packet count per connected master and slave (bytes)
system.membus.pkt_count::total                4368395                       # Packet count per connected master and slave (bytes)
system.membus.pkt_size_system.l2.mem_side::system.mem_ctrls.port    123842816                       # Cumulative packet size per connected master and slave (bytes)
system.membus.pkt_size_system.l2.mem_side::total    123842816                       # Cumulative packet size per connected master and slave (bytes)
system.membus.pkt_size::total               123842816                       # Cumulative packet size per connected master and slave (bytes)
system.membus.snoops                                0                       # Total snoops (count)
system.membus.snoopTraffic                          0                       # Total snoop traffic (bytes)
system.membus.snoop_fanout::samples           1543819                       # Request fanout histogram
system.membus.snoop_fanout::mean                    0                       # Request fanout histogram
system.membus.snoop_fanout::stdev                   0                       # Request fanout histogram
system.membus.snoop_fanout::underflows              0      0.00%      0.00% # Request fanout histogram
system.membus.snoop_fanout::0                 1543819    100.00%    100.00% # Request fanout histogram
system.membus.snoop_fanout::1                       0      0.00%    100.00% # Request fanout histogram
system.membus.snoop_fanout::overflows               0      0.00%    100.00% # Request fanout histogram
system.membus.snoop_fanout::min_value               0                       # Request fanout histogram
system.membus.snoop_fanout::max_value               0                       # Request fanout histogram
system.membus.snoop_fanout::total             1543819                       # Request fanout histogram
system.membus.reqLayer4.occupancy          6069846013                       # Layer occupancy (ticks)
system.membus.reqLayer4.utilization               0.2                       # Layer utilization (%)
system.membus.respLayer1.occupancy         8259619830                       # Layer occupancy (ticks)
system.membus.respLayer1.utilization              0.3                       # Layer utilization (%)
system.voltage_domain.voltage                       1                       # Voltage in Volts
system.clk_domain.clock                          1000                       # Clock period in ticks
system.cpu0.numPwrStateTransitions                  1                       # Number of power state transitions
system.cpu0.pwrStateResidencyTicks::ON   2451771867240                       # Cumulative time (in ticks) in various power states
system.cpu0.icache.pwrStateResidencyTicks::UNDEFINED 2451771867240                       # Cumulative time (in ticks) in various power states
system.cpu0.icache.demand_hits::.cpu0.inst     38901902                       # number of demand (read+write) hits
system.cpu0.icache.demand_hits::total        38901902                       # number of demand (read+write) hits
system.cpu0.icache.overall_hits::.cpu0.inst     38901902                       # number of overall hits
system.cpu0.icache.overall_hits::total       38901902                       # number of overall hits
system.cpu0.icache.demand_misses::.cpu0.inst          449                       # number of demand (read+write) misses
system.cpu0.icache.demand_misses::total           449                       # number of demand (read+write) misses
system.cpu0.icache.overall_misses::.cpu0.inst          449                       # number of overall misses
system.cpu0.icache.overall_misses::total          449                       # number of overall misses
system.cpu0.icache.demand_miss_latency::.cpu0.inst     37473822                       # number of demand (read+write) miss cycles
system.cpu0.icache.demand_miss_latency::total     37473822                       # number of demand (read+write) miss cycles
system.cpu0.icache.overall_miss_latency::.cpu0.inst     37473822                       # number of overall miss cycles
system.cpu0.icache.overall_miss_latency::total     37473822                       # number of overall miss cycles
system.cpu0.icache.demand_accesses::.cpu0.inst     38902351                       # number of demand (read+write) accesses
system.cpu0.icache.demand_accesses::total     38902351                       # number of demand (read+write) accesses
system.cpu0.icache.overall_accesses::.cpu0.inst     38902351                       # number of overall (read+write) accesses
system.cpu0.icache.overall_accesses::total     38902351                       # number of overall (read+write) accesses
system.cpu0.icache.demand_miss_rate::.cpu0.inst     0.000012                       # miss rate for demand accesses
system.cpu0.icache.demand_miss_rate::total     0.000012                       # miss rate for demand accesses
system.cpu0.icache.overall_miss_rate::.cpu0.inst     0.000012                       # miss rate for overall accesses
system.cpu0.icache.overall_miss_rate::total     0.000012                       # miss rate for overall accesses
system.cpu0.icache.demand_avg_miss_latency::.cpu0.inst 83460.628062                       # average overall miss latency
system.cpu0.icache.demand_avg_miss_latency::total 83460.628062                       # average overall miss latency
system.cpu0.icache.overall_avg_miss_latency::.cpu0.inst 83460.628062                       # average overall miss latency
system.cpu0.icache.overall_avg_miss_latency::total 83460.628062                       # average overall miss latency
system.cpu0.icache.blocked_cycles::no_mshrs            0                       # number of cycles access was blocked
system.cpu0.icache.blocked_cycles::no_targets            0                       # number of cycles access was blocked
system.cpu0.icache.blocked::no_mshrs                0                       # number of cycles access was blocked
system.cpu0.icache.blocked::no_targets              0                       # number of cycles access was blocked
system.cpu0.icache.avg_blocked_cycles::no_mshrs          nan                       # average number of cycles each access was blocked
system.cpu0.icache.avg_blocked_cycles::no_targets          nan                       # average number of cycles each access was blocked
system.cpu0.icache.writebacks::.writebacks           18                       # number of writebacks
system.cpu0.icache.writebacks::total               18                       # number of writebacks
system.cpu0.icache.demand_mshr_misses::.cpu0.inst          449                       # number of demand (read+write) MSHR misses
system.cpu0.icache.demand_mshr_misses::total          449                       # number of demand (read+write) MSHR misses
system.cpu0.icache.overall_mshr_misses::.cpu0.inst          449                       # number of overall MSHR misses
system.cpu0.icache.overall_mshr_misses::total          449                       # number of overall MSHR misses
system.cpu0.icache.demand_mshr_miss_latency::.cpu0.inst     37174788                       # number of demand (read+write) MSHR miss cycles
system.cpu0.icache.demand_mshr_miss_latency::total     37174788                       # number of demand (read+write) MSHR miss cycles
system.cpu0.icache.overall_mshr_miss_latency::.cpu0.inst     37174788                       # number of overall MSHR miss cycles
system.cpu0.icache.overall_mshr_miss_latency::total     37174788                       # number of overall MSHR miss cycles
system.cpu0.icache.demand_mshr_miss_rate::.cpu0.inst     0.000012                       # mshr miss rate for demand accesses
system.cpu0.icache.demand_mshr_miss_rate::total     0.000012                       # mshr miss rate for demand accesses
system.cpu0.icache.overall_mshr_miss_rate::.cpu0.inst     0.000012                       # mshr miss rate for overall accesses
system.cpu0.icache.overall_mshr_miss_rate::total     0.000012                       # mshr miss rate for overall accesses
system.cpu0.icache.demand_avg_mshr_miss_latency::.cpu0.inst 82794.628062                       # average overall mshr miss latency
system.cpu0.icache.demand_avg_mshr_miss_latency::total 82794.628062                       # average overall mshr miss latency
system.cpu0.icache.overall_avg_mshr_miss_latency::.cpu0.inst 82794.628062                       # average overall mshr miss latency
system.cpu0.icache.overall_avg_mshr_miss_latency::total 82794.628062                       # average overall mshr miss latency
system.cpu0.icache.replacements                    18                       # number of replacements
system.cpu0.icache.ReadReq_hits::.cpu0.inst     38901902                       # number of ReadReq hits
system.cpu0.icache.ReadReq_hits::total       38901902                       # number of ReadReq hits
system.cpu0.icache.ReadReq_misses::.cpu0.inst          449                       # number of ReadReq misses
system.cpu0.icache.ReadReq_misses::total          449                       # number of ReadReq misses
system.cpu0.icache.ReadReq_miss_latency::.cpu0.inst     37473822                       # number of ReadReq miss cycles
system.cpu0.icache.ReadReq_miss_latency::total     37473822                       # number of ReadReq miss cycles
system.cpu0.icache.ReadReq_accesses::.cpu0.inst     38902351                       # number of ReadReq accesses(hits+misses)
system.cpu0.icache.ReadReq_accesses::total     38902351                       # number of ReadReq accesses(hits+misses)
system.cpu0.icache.ReadReq_miss_rate::.cpu0.inst     0.000012                       # miss rate for ReadReq accesses
system.cpu0.icache.ReadReq_miss_rate::total     0.000012                       # miss rate for ReadReq accesses
system.cpu0.icache.ReadReq_avg_miss_latency::.cpu0.inst 83460.628062                       # average ReadReq miss latency
system.cpu0.icache.ReadReq_avg_miss_latency::total 83460.628062                       # average ReadReq miss latency
system.cpu0.icache.ReadReq_mshr_misses::.cpu0.inst          449                       # number of ReadReq MSHR misses
system.cpu0.icache.ReadReq_mshr_misses::total          449                       # number of ReadReq MSHR misses
system.cpu0.icache.ReadReq_mshr_miss_latency::.cpu0.inst     37174788                       # number of ReadReq MSHR miss cycles
system.cpu0.icache.ReadReq_mshr_miss_latency::total     37174788                       # number of ReadReq MSHR miss cycles
system.cpu0.icache.ReadReq_mshr_miss_rate::.cpu0.inst     0.000012                       # mshr miss rate for ReadReq accesses
system.cpu0.icache.ReadReq_mshr_miss_rate::total     0.000012                       # mshr miss rate for ReadReq accesses
system.cpu0.icache.ReadReq_avg_mshr_miss_latency::.cpu0.inst 82794.628062                       # average ReadReq mshr miss latency
system.cpu0.icache.ReadReq_avg_mshr_miss_latency::total 82794.628062                       # average ReadReq mshr miss latency
system.cpu0.icache.tags.pwrStateResidencyTicks::UNDEFINED 2451771867240                       # Cumulative time (in ticks) in various power states
system.cpu0.icache.tags.tagsinuse          428.747139                       # Cycle average of tags in use
system.cpu0.icache.tags.total_refs           38902351                       # Total number of references to valid blocks.
system.cpu0.icache.tags.sampled_refs              449                       # Sample count of references to valid blocks.
system.cpu0.icache.tags.avg_refs         86642.207127                       # Average number of references to valid blocks.
system.cpu0.icache.tags.warmup_cycle            83250                       # Cycle when the warmup percentage was hit.
system.cpu0.icache.tags.occ_blocks::.cpu0.inst   428.747139                       # Average occupied blocks per requestor
system.cpu0.icache.tags.occ_percent::.cpu0.inst     0.837397                       # Average percentage of cache occupancy
system.cpu0.icache.tags.occ_percent::total     0.837397                       # Average percentage of cache occupancy
system.cpu0.icache.tags.occ_task_id_blocks::1024          431                       # Occupied blocks per task id
system.cpu0.icache.tags.age_task_id_blocks_1024::4          431                       # Occupied blocks per task id
system.cpu0.icache.tags.occ_task_id_percent::1024     0.841797                       # Percentage of cache occupancy per task id
system.cpu0.icache.tags.tag_accesses        311219257                       # Number of tag accesses
system.cpu0.icache.tags.data_accesses       311219257                       # Number of data accesses
system.cpu0.icache.tags.repl_invalid                0                       # Number of initial replacements
system.cpu0.icache.tags.repl_valid_tag              0                       # Number of local replacements
system.cpu0.icache.tags.repl_valid_data             0                       # Number of global replacements
system.cpu0.dtb.walker.pwrStateResidencyTicks::UNDEFINED 2451771867240                       # Cumulative time (in ticks) in various power states
system.cpu0.interrupts.clk_domain.clock          5328                       # Clock period in ticks
system.cpu0.itb_walker_cache.pwrStateResidencyTicks::UNDEFINED 2451771867240                       # Cumulative time (in ticks) in various power states
system.cpu0.itb_walker_cache.blocked_cycles::no_mshrs            0                       # number of cycles access was blocked
system.cpu0.itb_walker_cache.blocked_cycles::no_targets            0                       # number of cycles access was blocked
system.cpu0.itb_walker_cache.blocked::no_mshrs            0                       # number of cycles access was blocked
system.cpu0.itb_walker_cache.blocked::no_targets            0                       # number of cycles access was blocked
system.cpu0.itb_walker_cache.avg_blocked_cycles::no_mshrs          nan                       # average number of cycles each access was blocked
system.cpu0.itb_walker_cache.avg_blocked_cycles::no_targets          nan                       # average number of cycles each access was blocked
system.cpu0.itb_walker_cache.replacements            0                       # number of replacements
system.cpu0.itb_walker_cache.tags.pwrStateResidencyTicks::UNDEFINED 2451771867240                       # Cumulative time (in ticks) in various power states
system.cpu0.itb_walker_cache.tags.tagsinuse            0                       # Cycle average of tags in use
system.cpu0.itb_walker_cache.tags.total_refs            0                       # Total number of references to valid blocks.
system.cpu0.itb_walker_cache.tags.sampled_refs            0                       # Sample count of references to valid blocks.
system.cpu0.itb_walker_cache.tags.avg_refs          nan                       # Average number of references to valid blocks.
system.cpu0.itb_walker_cache.tags.warmup_cycle            0                       # Cycle when the warmup percentage was hit.
system.cpu0.itb_walker_cache.tags.tag_accesses            0                       # Number of tag accesses
system.cpu0.itb_walker_cache.tags.data_accesses            0                       # Number of data accesses
system.cpu0.itb_walker_cache.tags.repl_invalid            0                       # Number of initial replacements
system.cpu0.itb_walker_cache.tags.repl_valid_tag            0                       # Number of local replacements
system.cpu0.itb_walker_cache.tags.repl_valid_data            0                       # Number of global replacements
system.cpu0.itb.walker.pwrStateResidencyTicks::UNDEFINED 2451771867240                       # Cumulative time (in ticks) in various power states
system.cpu0.dtb_walker_cache.pwrStateResidencyTicks::UNDEFINED 2451771867240                       # Cumulative time (in ticks) in various power states
system.cpu0.dtb_walker_cache.blocked_cycles::no_mshrs            0                       # number of cycles access was blocked
system.cpu0.dtb_walker_cache.blocked_cycles::no_targets            0                       # number of cycles access was blocked
system.cpu0.dtb_walker_cache.blocked::no_mshrs            0                       # number of cycles access was blocked
system.cpu0.dtb_walker_cache.blocked::no_targets            0                       # number of cycles access was blocked
system.cpu0.dtb_walker_cache.avg_blocked_cycles::no_mshrs          nan                       # average number of cycles each access was blocked
system.cpu0.dtb_walker_cache.avg_blocked_cycles::no_targets          nan                       # average number of cycles each access was blocked
system.cpu0.dtb_walker_cache.replacements            0                       # number of replacements
system.cpu0.dtb_walker_cache.tags.pwrStateResidencyTicks::UNDEFINED 2451771867240                       # Cumulative time (in ticks) in various power states
system.cpu0.dtb_walker_cache.tags.tagsinuse            0                       # Cycle average of tags in use
system.cpu0.dtb_walker_cache.tags.total_refs            0                       # Total number of references to valid blocks.
system.cpu0.dtb_walker_cache.tags.sampled_refs            0                       # Sample count of references to valid blocks.
system.cpu0.dtb_walker_cache.tags.avg_refs          nan                       # Average number of references to valid blocks.
system.cpu0.dtb_walker_cache.tags.warmup_cycle            0                       # Cycle when the warmup percentage was hit.
system.cpu0.dtb_walker_cache.tags.tag_accesses            0                       # Number of tag accesses
system.cpu0.dtb_walker_cache.tags.data_accesses            0                       # Number of data accesses
system.cpu0.dtb_walker_cache.tags.repl_invalid            0                       # Number of initial replacements
system.cpu0.dtb_walker_cache.tags.repl_valid_tag            0                       # Number of local replacements
system.cpu0.dtb_walker_cache.tags.repl_valid_data            0                       # Number of global replacements
system.cpu0.dcache.pwrStateResidencyTicks::UNDEFINED 2451771867240                       # Cumulative time (in ticks) in various power states
system.cpu0.dcache.demand_hits::.cpu0.data     16322542                       # number of demand (read+write) hits
system.cpu0.dcache.demand_hits::total        16322542                       # number of demand (read+write) hits
system.cpu0.dcache.overall_hits::.cpu0.data     16322542                       # number of overall hits
system.cpu0.dcache.overall_hits::total       16322542                       # number of overall hits
system.cpu0.dcache.demand_misses::.cpu0.data       347916                       # number of demand (read+write) misses
system.cpu0.dcache.demand_misses::total        347916                       # number of demand (read+write) misses
system.cpu0.dcache.overall_misses::.cpu0.data       347916                       # number of overall misses
system.cpu0.dcache.overall_misses::total       347916                       # number of overall misses
system.cpu0.dcache.demand_miss_latency::.cpu0.data  29614985037                       # number of demand (read+write) miss cycles
system.cpu0.dcache.demand_miss_latency::total  29614985037                       # number of demand (read+write) miss cycles
system.cpu0.dcache.overall_miss_latency::.cpu0.data  29614985037                       # number of overall miss cycles
system.cpu0.dcache.overall_miss_latency::total  29614985037                       # number of overall miss cycles
system.cpu0.dcache.demand_accesses::.cpu0.data     16670458                       # number of demand (read+write) accesses
system.cpu0.dcache.demand_accesses::total     16670458                       # number of demand (read+write) accesses
system.cpu0.dcache.overall_accesses::.cpu0.data     16670458                       # number of overall (read+write) accesses
system.cpu0.dcache.overall_accesses::total     16670458                       # number of overall (read+write) accesses
system.cpu0.dcache.demand_miss_rate::.cpu0.data     0.020870                       # miss rate for demand accesses
system.cpu0.dcache.demand_miss_rate::total     0.020870                       # miss rate for demand accesses
system.cpu0.dcache.overall_miss_rate::.cpu0.data     0.020870                       # miss rate for overall accesses
system.cpu0.dcache.overall_miss_rate::total     0.020870                       # miss rate for overall accesses
system.cpu0.dcache.demand_avg_miss_latency::.cpu0.data 85121.078183                       # average overall miss latency
system.cpu0.dcache.demand_avg_miss_latency::total 85121.078183                       # average overall miss latency
system.cpu0.dcache.overall_avg_miss_latency::.cpu0.data 85121.078183                       # average overall miss latency
system.cpu0.dcache.overall_avg_miss_latency::total 85121.078183                       # average overall miss latency
system.cpu0.dcache.blocked_cycles::no_mshrs            0                       # number of cycles access was blocked
system.cpu0.dcache.blocked_cycles::no_targets            0                       # number of cycles access was blocked
system.cpu0.dcache.blocked::no_mshrs                0                       # number of cycles access was blocked
system.cpu0.dcache.blocked::no_targets              0                       # number of cycles access was blocked
system.cpu0.dcache.avg_blocked_cycles::no_mshrs          nan                       # average number of cycles each access was blocked
system.cpu0.dcache.avg_blocked_cycles::no_targets          nan                       # average number of cycles each access was blocked
system.cpu0.dcache.writebacks::.writebacks          514                       # number of writebacks
system.cpu0.dcache.writebacks::total              514                       # number of writebacks
system.cpu0.dcache.demand_mshr_misses::.cpu0.data       347916                       # number of demand (read+write) MSHR misses
system.cpu0.dcache.demand_mshr_misses::total       347916                       # number of demand (read+write) MSHR misses
system.cpu0.dcache.overall_mshr_misses::.cpu0.data       347916                       # number of overall MSHR misses
system.cpu0.dcache.overall_mshr_misses::total       347916                       # number of overall MSHR misses
system.cpu0.dcache.demand_mshr_miss_latency::.cpu0.data  29383272981                       # number of demand (read+write) MSHR miss cycles
system.cpu0.dcache.demand_mshr_miss_latency::total  29383272981                       # number of demand (read+write) MSHR miss cycles
system.cpu0.dcache.overall_mshr_miss_latency::.cpu0.data  29383272981                       # number of overall MSHR miss cycles
system.cpu0.dcache.overall_mshr_miss_latency::total  29383272981                       # number of overall MSHR miss cycles
system.cpu0.dcache.demand_mshr_miss_rate::.cpu0.data     0.020870                       # mshr miss rate for demand accesses
system.cpu0.dcache.demand_mshr_miss_rate::total     0.020870                       # mshr miss rate for demand accesses
system.cpu0.dcache.overall_mshr_miss_rate::.cpu0.data     0.020870                       # mshr miss rate for overall accesses
system.cpu0.dcache.overall_mshr_miss_rate::total     0.020870                       # mshr miss rate for overall accesses
system.cpu0.dcache.demand_avg_mshr_miss_latency::.cpu0.data 84455.078183                       # average overall mshr miss latency
system.cpu0.dcache.demand_avg_mshr_miss_latency::total 84455.078183                       # average overall mshr miss latency
system.cpu0.dcache.overall_avg_mshr_miss_latency::.cpu0.data 84455.078183                       # average overall mshr miss latency
system.cpu0.dcache.overall_avg_mshr_miss_latency::total 84455.078183                       # average overall mshr miss latency
system.cpu0.dcache.replacements                347908                       # number of replacements
system.cpu0.dcache.ReadReq_hits::.cpu0.data     10765403                       # number of ReadReq hits
system.cpu0.dcache.ReadReq_hits::total       10765403                       # number of ReadReq hits
system.cpu0.dcache.ReadReq_misses::.cpu0.data       347660                       # number of ReadReq misses
system.cpu0.dcache.ReadReq_misses::total       347660                       # number of ReadReq misses
system.cpu0.dcache.ReadReq_miss_latency::.cpu0.data  29603382651                       # number of ReadReq miss cycles
system.cpu0.dcache.ReadReq_miss_latency::total  29603382651                       # number of ReadReq miss cycles
system.cpu0.dcache.ReadReq_accesses::.cpu0.data     11113063                       # number of ReadReq accesses(hits+misses)
system.cpu0.dcache.ReadReq_accesses::total     11113063                       # number of ReadReq accesses(hits+misses)
system.cpu0.dcache.ReadReq_miss_rate::.cpu0.data     0.031284                       # miss rate for ReadReq accesses
system.cpu0.dcache.ReadReq_miss_rate::total     0.031284                       # miss rate for ReadReq accesses
system.cpu0.dcache.ReadReq_avg_miss_latency::.cpu0.data 85150.384430                       # average ReadReq miss latency
system.cpu0.dcache.ReadReq_avg_miss_latency::total 85150.384430                       # average ReadReq miss latency
system.cpu0.dcache.ReadReq_mshr_misses::.cpu0.data       347660                       # number of ReadReq MSHR misses
system.cpu0.dcache.ReadReq_mshr_misses::total       347660                       # number of ReadReq MSHR misses
system.cpu0.dcache.ReadReq_mshr_miss_latency::.cpu0.data  29371841091                       # number of ReadReq MSHR miss cycles
system.cpu0.dcache.ReadReq_mshr_miss_latency::total  29371841091                       # number of ReadReq MSHR miss cycles
system.cpu0.dcache.ReadReq_mshr_miss_rate::.cpu0.data     0.031284                       # mshr miss rate for ReadReq accesses
system.cpu0.dcache.ReadReq_mshr_miss_rate::total     0.031284                       # mshr miss rate for ReadReq accesses
system.cpu0.dcache.ReadReq_avg_mshr_miss_latency::.cpu0.data 84484.384430                       # average ReadReq mshr miss latency
system.cpu0.dcache.ReadReq_avg_mshr_miss_latency::total 84484.384430                       # average ReadReq mshr miss latency
system.cpu0.dcache.WriteReq_hits::.cpu0.data      5557139                       # number of WriteReq hits
system.cpu0.dcache.WriteReq_hits::total       5557139                       # number of WriteReq hits
system.cpu0.dcache.WriteReq_misses::.cpu0.data          256                       # number of WriteReq misses
system.cpu0.dcache.WriteReq_misses::total          256                       # number of WriteReq misses
system.cpu0.dcache.WriteReq_miss_latency::.cpu0.data     11602386                       # number of WriteReq miss cycles
system.cpu0.dcache.WriteReq_miss_latency::total     11602386                       # number of WriteReq miss cycles
system.cpu0.dcache.WriteReq_accesses::.cpu0.data      5557395                       # number of WriteReq accesses(hits+misses)
system.cpu0.dcache.WriteReq_accesses::total      5557395                       # number of WriteReq accesses(hits+misses)
system.cpu0.dcache.WriteReq_miss_rate::.cpu0.data     0.000046                       # miss rate for WriteReq accesses
system.cpu0.dcache.WriteReq_miss_rate::total     0.000046                       # miss rate for WriteReq accesses
system.cpu0.dcache.WriteReq_avg_miss_latency::.cpu0.data 45321.820312                       # average WriteReq miss latency
system.cpu0.dcache.WriteReq_avg_miss_latency::total 45321.820312                       # average WriteReq miss latency
system.cpu0.dcache.WriteReq_mshr_misses::.cpu0.data          256                       # number of WriteReq MSHR misses
system.cpu0.dcache.WriteReq_mshr_misses::total          256                       # number of WriteReq MSHR misses
system.cpu0.dcache.WriteReq_mshr_miss_latency::.cpu0.data     11431890                       # number of WriteReq MSHR miss cycles
system.cpu0.dcache.WriteReq_mshr_miss_latency::total     11431890                       # number of WriteReq MSHR miss cycles
system.cpu0.dcache.WriteReq_mshr_miss_rate::.cpu0.data     0.000046                       # mshr miss rate for WriteReq accesses
system.cpu0.dcache.WriteReq_mshr_miss_rate::total     0.000046                       # mshr miss rate for WriteReq accesses
system.cpu0.dcache.WriteReq_avg_mshr_miss_latency::.cpu0.data 44655.820312                       # average WriteReq mshr miss latency
system.cpu0.dcache.WriteReq_avg_mshr_miss_latency::total 44655.820312                       # average WriteReq mshr miss latency
system.cpu0.dcache.tags.pwrStateResidencyTicks::UNDEFINED 2451771867240                       # Cumulative time (in ticks) in various power states
system.cpu0.dcache.tags.tagsinuse            7.999998                       # Cycle average of tags in use
system.cpu0.dcache.tags.total_refs           16670458                       # Total number of references to valid blocks.
system.cpu0.dcache.tags.sampled_refs           347916                       # Sample count of references to valid blocks.
system.cpu0.dcache.tags.avg_refs            47.915181                       # Average number of references to valid blocks.
system.cpu0.dcache.tags.warmup_cycle           165168                       # Cycle when the warmup percentage was hit.
system.cpu0.dcache.tags.occ_blocks::.cpu0.data     7.999998                       # Average occupied blocks per requestor
system.cpu0.dcache.tags.occ_percent::.cpu0.data     1.000000                       # Average percentage of cache occupancy
system.cpu0.dcache.tags.occ_percent::total     1.000000                       # Average percentage of cache occupancy
system.cpu0.dcache.tags.occ_task_id_blocks::1024            8                       # Occupied blocks per task id
system.cpu0.dcache.tags.age_task_id_blocks_1024::4            8                       # Occupied blocks per task id
system.cpu0.dcache.tags.occ_task_id_percent::1024            1                       # Percentage of cache occupancy per task id
system.cpu0.dcache.tags.tag_accesses        133711580                       # Number of tag accesses
system.cpu0.dcache.tags.data_accesses       133711580                       # Number of data accesses
system.cpu0.dcache.tags.repl_invalid                0                       # Number of initial replacements
system.cpu0.dcache.tags.repl_valid_tag              0                       # Number of local replacements
system.cpu0.dcache.tags.repl_valid_data             0                       # Number of global replacements
system.cpu1.numPwrStateTransitions                  1                       # Number of power state transitions
system.cpu1.pwrStateResidencyTicks::ON   2451771867240                       # Cumulative time (in ticks) in various power states
system.cpu1.icache.pwrStateResidencyTicks::UNDEFINED 2451771867240                       # Cumulative time (in ticks) in various power states
system.cpu1.icache.demand_hits::.cpu1.inst   1278068172                       # number of demand (read+write) hits
system.cpu1.icache.demand_hits::total      1278068172                       # number of demand (read+write) hits
system.cpu1.icache.overall_hits::.cpu1.inst   1278068172                       # number of overall hits
system.cpu1.icache.overall_hits::total     1278068172                       # number of overall hits
system.cpu1.icache.demand_misses::.cpu1.inst          816                       # number of demand (read+write) misses
system.cpu1.icache.demand_misses::total           816                       # number of demand (read+write) misses
system.cpu1.icache.overall_misses::.cpu1.inst          816                       # number of overall misses
system.cpu1.icache.overall_misses::total          816                       # number of overall misses
system.cpu1.icache.demand_miss_latency::.cpu1.inst     68403861                       # number of demand (read+write) miss cycles
system.cpu1.icache.demand_miss_latency::total     68403861                       # number of demand (read+write) miss cycles
system.cpu1.icache.overall_miss_latency::.cpu1.inst     68403861                       # number of overall miss cycles
system.cpu1.icache.overall_miss_latency::total     68403861                       # number of overall miss cycles
system.cpu1.icache.demand_accesses::.cpu1.inst   1278068988                       # number of demand (read+write) accesses
system.cpu1.icache.demand_accesses::total   1278068988                       # number of demand (read+write) accesses
system.cpu1.icache.overall_accesses::.cpu1.inst   1278068988                       # number of overall (read+write) accesses
system.cpu1.icache.overall_accesses::total   1278068988                       # number of overall (read+write) accesses
system.cpu1.icache.demand_miss_rate::.cpu1.inst     0.000001                       # miss rate for demand accesses
system.cpu1.icache.demand_miss_rate::total     0.000001                       # miss rate for demand accesses
system.cpu1.icache.overall_miss_rate::.cpu1.inst     0.000001                       # miss rate for overall accesses
system.cpu1.icache.overall_miss_rate::total     0.000001                       # miss rate for overall accesses
system.cpu1.icache.demand_avg_miss_latency::.cpu1.inst 83828.261029                       # average overall miss latency
system.cpu1.icache.demand_avg_miss_latency::total 83828.261029                       # average overall miss latency
system.cpu1.icache.overall_avg_miss_latency::.cpu1.inst 83828.261029                       # average overall miss latency
system.cpu1.icache.overall_avg_miss_latency::total 83828.261029                       # average overall miss latency
system.cpu1.icache.blocked_cycles::no_mshrs            0                       # number of cycles access was blocked
system.cpu1.icache.blocked_cycles::no_targets            0                       # number of cycles access was blocked
system.cpu1.icache.blocked::no_mshrs                0                       # number of cycles access was blocked
system.cpu1.icache.blocked::no_targets              0                       # number of cycles access was blocked
system.cpu1.icache.avg_blocked_cycles::no_mshrs          nan                       # average number of cycles each access was blocked
system.cpu1.icache.avg_blocked_cycles::no_targets          nan                       # average number of cycles each access was blocked
system.cpu1.icache.writebacks::.writebacks          304                       # number of writebacks
system.cpu1.icache.writebacks::total              304                       # number of writebacks
system.cpu1.icache.demand_mshr_misses::.cpu1.inst          816                       # number of demand (read+write) MSHR misses
system.cpu1.icache.demand_mshr_misses::total          816                       # number of demand (read+write) MSHR misses
system.cpu1.icache.overall_mshr_misses::.cpu1.inst          816                       # number of overall MSHR misses
system.cpu1.icache.overall_mshr_misses::total          816                       # number of overall MSHR misses
system.cpu1.icache.demand_mshr_miss_latency::.cpu1.inst     67860405                       # number of demand (read+write) MSHR miss cycles
system.cpu1.icache.demand_mshr_miss_latency::total     67860405                       # number of demand (read+write) MSHR miss cycles
system.cpu1.icache.overall_mshr_miss_latency::.cpu1.inst     67860405                       # number of overall MSHR miss cycles
system.cpu1.icache.overall_mshr_miss_latency::total     67860405                       # number of overall MSHR miss cycles
system.cpu1.icache.demand_mshr_miss_rate::.cpu1.inst     0.000001                       # mshr miss rate for demand accesses
system.cpu1.icache.demand_mshr_miss_rate::total     0.000001                       # mshr miss rate for demand accesses
system.cpu1.icache.overall_mshr_miss_rate::.cpu1.inst     0.000001                       # mshr miss rate for overall accesses
system.cpu1.icache.overall_mshr_miss_rate::total     0.000001                       # mshr miss rate for overall accesses
system.cpu1.icache.demand_avg_mshr_miss_latency::.cpu1.inst 83162.261029                       # average overall mshr miss latency
system.cpu1.icache.demand_avg_mshr_miss_latency::total 83162.261029                       # average overall mshr miss latency
system.cpu1.icache.overall_avg_mshr_miss_latency::.cpu1.inst 83162.261029                       # average overall mshr miss latency
system.cpu1.icache.overall_avg_mshr_miss_latency::total 83162.261029                       # average overall mshr miss latency
system.cpu1.icache.replacements                   304                       # number of replacements
system.cpu1.icache.ReadReq_hits::.cpu1.inst   1278068172                       # number of ReadReq hits
system.cpu1.icache.ReadReq_hits::total     1278068172                       # number of ReadReq hits
system.cpu1.icache.ReadReq_misses::.cpu1.inst          816                       # number of ReadReq misses
system.cpu1.icache.ReadReq_misses::total          816                       # number of ReadReq misses
system.cpu1.icache.ReadReq_miss_latency::.cpu1.inst     68403861                       # number of ReadReq miss cycles
system.cpu1.icache.ReadReq_miss_latency::total     68403861                       # number of ReadReq miss cycles
system.cpu1.icache.ReadReq_accesses::.cpu1.inst   1278068988                       # number of ReadReq accesses(hits+misses)
system.cpu1.icache.ReadReq_accesses::total   1278068988                       # number of ReadReq accesses(hits+misses)
system.cpu1.icache.ReadReq_miss_rate::.cpu1.inst     0.000001                       # miss rate for ReadReq accesses
system.cpu1.icache.ReadReq_miss_rate::total     0.000001                       # miss rate for ReadReq accesses
system.cpu1.icache.ReadReq_avg_miss_latency::.cpu1.inst 83828.261029                       # average ReadReq miss latency
system.cpu1.icache.ReadReq_avg_miss_latency::total 83828.261029                       # average ReadReq miss latency
system.cpu1.icache.ReadReq_mshr_misses::.cpu1.inst          816                       # number of ReadReq MSHR misses
system.cpu1.icache.ReadReq_mshr_misses::total          816                       # number of ReadReq MSHR misses
system.cpu1.icache.ReadReq_mshr_miss_latency::.cpu1.inst     67860405                       # number of ReadReq MSHR miss cycles
system.cpu1.icache.ReadReq_mshr_miss_latency::total     67860405                       # number of ReadReq MSHR miss cycles
system.cpu1.icache.ReadReq_mshr_miss_rate::.cpu1.inst     0.000001                       # mshr miss rate for ReadReq accesses
system.cpu1.icache.ReadReq_mshr_miss_rate::total     0.000001                       # mshr miss rate for ReadReq accesses
system.cpu1.icache.ReadReq_avg_mshr_miss_latency::.cpu1.inst 83162.261029                       # average ReadReq mshr miss latency
system.cpu1.icache.ReadReq_avg_mshr_miss_latency::total 83162.261029                       # average ReadReq mshr miss latency
system.cpu1.icache.tags.pwrStateResidencyTicks::UNDEFINED 2451771867240                       # Cumulative time (in ticks) in various power states
system.cpu1.icache.tags.tagsinuse          507.022708                       # Cycle average of tags in use
system.cpu1.icache.tags.total_refs         1278068988                       # Total number of references to valid blocks.
system.cpu1.icache.tags.sampled_refs              816                       # Sample count of references to valid blocks.
system.cpu1.icache.tags.avg_refs         1566261.014706                       # Average number of references to valid blocks.
system.cpu1.icache.tags.warmup_cycle            88245                       # Cycle when the warmup percentage was hit.
system.cpu1.icache.tags.occ_blocks::.cpu1.inst   507.022708                       # Average occupied blocks per requestor
system.cpu1.icache.tags.occ_percent::.cpu1.inst     0.990279                       # Average percentage of cache occupancy
system.cpu1.icache.tags.occ_percent::total     0.990279                       # Average percentage of cache occupancy
system.cpu1.icache.tags.occ_task_id_blocks::1024          512                       # Occupied blocks per task id
system.cpu1.icache.tags.age_task_id_blocks_1024::4          512                       # Occupied blocks per task id
system.cpu1.icache.tags.occ_task_id_percent::1024            1                       # Percentage of cache occupancy per task id
system.cpu1.icache.tags.tag_accesses      10224552720                       # Number of tag accesses
system.cpu1.icache.tags.data_accesses     10224552720                       # Number of data accesses
system.cpu1.icache.tags.repl_invalid                0                       # Number of initial replacements
system.cpu1.icache.tags.repl_valid_tag              0                       # Number of local replacements
system.cpu1.icache.tags.repl_valid_data             0                       # Number of global replacements
system.cpu1.dtb.walker.pwrStateResidencyTicks::UNDEFINED 2451771867240                       # Cumulative time (in ticks) in various power states
system.cpu1.interrupts.clk_domain.clock          5328                       # Clock period in ticks
system.cpu1.itb_walker_cache.pwrStateResidencyTicks::UNDEFINED 2451771867240                       # Cumulative time (in ticks) in various power states
system.cpu1.itb_walker_cache.blocked_cycles::no_mshrs            0                       # number of cycles access was blocked
system.cpu1.itb_walker_cache.blocked_cycles::no_targets            0                       # number of cycles access was blocked
system.cpu1.itb_walker_cache.blocked::no_mshrs            0                       # number of cycles access was blocked
system.cpu1.itb_walker_cache.blocked::no_targets            0                       # number of cycles access was blocked
system.cpu1.itb_walker_cache.avg_blocked_cycles::no_mshrs          nan                       # average number of cycles each access was blocked
system.cpu1.itb_walker_cache.avg_blocked_cycles::no_targets          nan                       # average number of cycles each access was blocked
system.cpu1.itb_walker_cache.replacements            0                       # number of replacements
system.cpu1.itb_walker_cache.tags.pwrStateResidencyTicks::UNDEFINED 2451771867240                       # Cumulative time (in ticks) in various power states
system.cpu1.itb_walker_cache.tags.tagsinuse            0                       # Cycle average of tags in use
system.cpu1.itb_walker_cache.tags.total_refs            0                       # Total number of references to valid blocks.
system.cpu1.itb_walker_cache.tags.sampled_refs            0                       # Sample count of references to valid blocks.
system.cpu1.itb_walker_cache.tags.avg_refs          nan                       # Average number of references to valid blocks.
system.cpu1.itb_walker_cache.tags.warmup_cycle            0                       # Cycle when the warmup percentage was hit.
system.cpu1.itb_walker_cache.tags.tag_accesses            0                       # Number of tag accesses
system.cpu1.itb_walker_cache.tags.data_accesses            0                       # Number of data accesses
system.cpu1.itb_walker_cache.tags.repl_invalid            0                       # Number of initial replacements
system.cpu1.itb_walker_cache.tags.repl_valid_tag            0                       # Number of local replacements
system.cpu1.itb_walker_cache.tags.repl_valid_data            0                       # Number of global replacements
system.cpu1.itb.walker.pwrStateResidencyTicks::UNDEFINED 2451771867240                       # Cumulative time (in ticks) in various power states
system.cpu1.dtb_walker_cache.pwrStateResidencyTicks::UNDEFINED 2451771867240                       # Cumulative time (in ticks) in various power states
system.cpu1.dtb_walker_cache.blocked_cycles::no_mshrs            0                       # number of cycles access was blocked
system.cpu1.dtb_walker_cache.blocked_cycles::no_targets            0                       # number of cycles access was blocked
system.cpu1.dtb_walker_cache.blocked::no_mshrs            0                       # number of cycles access was blocked
system.cpu1.dtb_walker_cache.blocked::no_targets            0                       # number of cycles access was blocked
system.cpu1.dtb_walker_cache.avg_blocked_cycles::no_mshrs          nan                       # average number of cycles each access was blocked
system.cpu1.dtb_walker_cache.avg_blocked_cycles::no_targets          nan                       # average number of cycles each access was blocked
system.cpu1.dtb_walker_cache.replacements            0                       # number of replacements
system.cpu1.dtb_walker_cache.tags.pwrStateResidencyTicks::UNDEFINED 2451771867240                       # Cumulative time (in ticks) in various power states
system.cpu1.dtb_walker_cache.tags.tagsinuse            0                       # Cycle average of tags in use
system.cpu1.dtb_walker_cache.tags.total_refs            0                       # Total number of references to valid blocks.
system.cpu1.dtb_walker_cache.tags.sampled_refs            0                       # Sample count of references to valid blocks.
system.cpu1.dtb_walker_cache.tags.avg_refs          nan                       # Average number of references to valid blocks.
system.cpu1.dtb_walker_cache.tags.warmup_cycle            0                       # Cycle when the warmup percentage was hit.
system.cpu1.dtb_walker_cache.tags.tag_accesses            0                       # Number of tag accesses
system.cpu1.dtb_walker_cache.tags.data_accesses            0                       # Number of data accesses
system.cpu1.dtb_walker_cache.tags.repl_invalid            0                       # Number of initial replacements
system.cpu1.dtb_walker_cache.tags.repl_valid_tag            0                       # Number of local replacements
system.cpu1.dtb_walker_cache.tags.repl_valid_data            0                       # Number of global replacements
system.cpu1.dcache.pwrStateResidencyTicks::UNDEFINED 2451771867240                       # Cumulative time (in ticks) in various power states
system.cpu1.dcache.demand_hits::.cpu1.data    292190749                       # number of demand (read+write) hits
system.cpu1.dcache.demand_hits::total       292190749                       # number of demand (read+write) hits
system.cpu1.dcache.overall_hits::.cpu1.data    292190749                       # number of overall hits
system.cpu1.dcache.overall_hits::total      292190749                       # number of overall hits
system.cpu1.dcache.demand_misses::.cpu1.data    123976326                       # number of demand (read+write) misses
system.cpu1.dcache.demand_misses::total     123976326                       # number of demand (read+write) misses
system.cpu1.dcache.overall_misses::.cpu1.data    123976326                       # number of overall misses
system.cpu1.dcache.overall_misses::total    123976326                       # number of overall misses
system.cpu1.dcache.demand_miss_latency::.cpu1.data 1405924208793                       # number of demand (read+write) miss cycles
system.cpu1.dcache.demand_miss_latency::total 1405924208793                       # number of demand (read+write) miss cycles
system.cpu1.dcache.overall_miss_latency::.cpu1.data 1405924208793                       # number of overall miss cycles
system.cpu1.dcache.overall_miss_latency::total 1405924208793                       # number of overall miss cycles
system.cpu1.dcache.demand_accesses::.cpu1.data    416167075                       # number of demand (read+write) accesses
system.cpu1.dcache.demand_accesses::total    416167075                       # number of demand (read+write) accesses
system.cpu1.dcache.overall_accesses::.cpu1.data    416167075                       # number of overall (read+write) accesses
system.cpu1.dcache.overall_accesses::total    416167075                       # number of overall (read+write) accesses
system.cpu1.dcache.demand_miss_rate::.cpu1.data     0.297900                       # miss rate for demand accesses
system.cpu1.dcache.demand_miss_rate::total     0.297900                       # miss rate for demand accesses
system.cpu1.dcache.overall_miss_rate::.cpu1.data     0.297900                       # miss rate for overall accesses
system.cpu1.dcache.overall_miss_rate::total     0.297900                       # miss rate for overall accesses
system.cpu1.dcache.demand_avg_miss_latency::.cpu1.data 11340.263534                       # average overall miss latency
system.cpu1.dcache.demand_avg_miss_latency::total 11340.263534                       # average overall miss latency
system.cpu1.dcache.overall_avg_miss_latency::.cpu1.data 11340.263534                       # average overall miss latency
system.cpu1.dcache.overall_avg_miss_latency::total 11340.263534                       # average overall miss latency
system.cpu1.dcache.blocked_cycles::no_mshrs            0                       # number of cycles access was blocked
system.cpu1.dcache.blocked_cycles::no_targets            0                       # number of cycles access was blocked
system.cpu1.dcache.blocked::no_mshrs                0                       # number of cycles access was blocked
system.cpu1.dcache.blocked::no_targets              0                       # number of cycles access was blocked
system.cpu1.dcache.avg_blocked_cycles::no_mshrs          nan                       # average number of cycles each access was blocked
system.cpu1.dcache.avg_blocked_cycles::no_targets          nan                       # average number of cycles each access was blocked
system.cpu1.dcache.writebacks::.writebacks     75153047                       # number of writebacks
system.cpu1.dcache.writebacks::total         75153047                       # number of writebacks
system.cpu1.dcache.demand_mshr_misses::.cpu1.data    123976326                       # number of demand (read+write) MSHR misses
system.cpu1.dcache.demand_mshr_misses::total    123976326                       # number of demand (read+write) MSHR misses
system.cpu1.dcache.overall_mshr_misses::.cpu1.data    123976326                       # number of overall MSHR misses
system.cpu1.dcache.overall_mshr_misses::total    123976326                       # number of overall MSHR misses
system.cpu1.dcache.demand_mshr_miss_latency::.cpu1.data 1323355975677                       # number of demand (read+write) MSHR miss cycles
system.cpu1.dcache.demand_mshr_miss_latency::total 1323355975677                       # number of demand (read+write) MSHR miss cycles
system.cpu1.dcache.overall_mshr_miss_latency::.cpu1.data 1323355975677                       # number of overall MSHR miss cycles
system.cpu1.dcache.overall_mshr_miss_latency::total 1323355975677                       # number of overall MSHR miss cycles
system.cpu1.dcache.demand_mshr_miss_rate::.cpu1.data     0.297900                       # mshr miss rate for demand accesses
system.cpu1.dcache.demand_mshr_miss_rate::total     0.297900                       # mshr miss rate for demand accesses
system.cpu1.dcache.overall_mshr_miss_rate::.cpu1.data     0.297900                       # mshr miss rate for overall accesses
system.cpu1.dcache.overall_mshr_miss_rate::total     0.297900                       # mshr miss rate for overall accesses
system.cpu1.dcache.demand_avg_mshr_miss_latency::.cpu1.data 10674.263534                       # average overall mshr miss latency
system.cpu1.dcache.demand_avg_mshr_miss_latency::total 10674.263534                       # average overall mshr miss latency
system.cpu1.dcache.overall_avg_mshr_miss_latency::.cpu1.data 10674.263534                       # average overall mshr miss latency
system.cpu1.dcache.overall_avg_mshr_miss_latency::total 10674.263534                       # average overall mshr miss latency
system.cpu1.dcache.replacements             123976318                       # number of replacements
system.cpu1.dcache.ReadReq_hits::.cpu1.data    190074531                       # number of ReadReq hits
system.cpu1.dcache.ReadReq_hits::total      190074531                       # number of ReadReq hits
system.cpu1.dcache.ReadReq_misses::.cpu1.data    111315830                       # number of ReadReq misses
system.cpu1.dcache.ReadReq_misses::total    111315830                       # number of ReadReq misses
system.cpu1.dcache.ReadReq_miss_latency::.cpu1.data 1250385505191                       # number of ReadReq miss cycles
system.cpu1.dcache.ReadReq_miss_latency::total 1250385505191                       # number of ReadReq miss cycles
system.cpu1.dcache.ReadReq_accesses::.cpu1.data    301390361                       # number of ReadReq accesses(hits+misses)
system.cpu1.dcache.ReadReq_accesses::total    301390361                       # number of ReadReq accesses(hits+misses)
system.cpu1.dcache.ReadReq_miss_rate::.cpu1.data     0.369341                       # miss rate for ReadReq accesses
system.cpu1.dcache.ReadReq_miss_rate::total     0.369341                       # miss rate for ReadReq accesses
system.cpu1.dcache.ReadReq_avg_miss_latency::.cpu1.data 11232.773499                       # average ReadReq miss latency
system.cpu1.dcache.ReadReq_avg_miss_latency::total 11232.773499                       # average ReadReq miss latency
system.cpu1.dcache.ReadReq_mshr_misses::.cpu1.data    111315830                       # number of ReadReq MSHR misses
system.cpu1.dcache.ReadReq_mshr_misses::total    111315830                       # number of ReadReq MSHR misses
system.cpu1.dcache.ReadReq_mshr_miss_latency::.cpu1.data 1176249162411                       # number of ReadReq MSHR miss cycles
system.cpu1.dcache.ReadReq_mshr_miss_latency::total 1176249162411                       # number of ReadReq MSHR miss cycles
system.cpu1.dcache.ReadReq_mshr_miss_rate::.cpu1.data     0.369341                       # mshr miss rate for ReadReq accesses
system.cpu1.dcache.ReadReq_mshr_miss_rate::total     0.369341                       # mshr miss rate for ReadReq accesses
system.cpu1.dcache.ReadReq_avg_mshr_miss_latency::.cpu1.data 10566.773499                       # average ReadReq mshr miss latency
system.cpu1.dcache.ReadReq_avg_mshr_miss_latency::total 10566.773499                       # average ReadReq mshr miss latency
system.cpu1.dcache.WriteReq_hits::.cpu1.data    102116218                       # number of WriteReq hits
system.cpu1.dcache.WriteReq_hits::total     102116218                       # number of WriteReq hits
system.cpu1.dcache.WriteReq_misses::.cpu1.data     12660496                       # number of WriteReq misses
system.cpu1.dcache.WriteReq_misses::total     12660496                       # number of WriteReq misses
[...]
system.mem_ctrls.wrQLenPdf::112                     0                       # What write queue length does an incoming req see
system.mem_ctrls.wrQLenPdf::113                     0                       # What write queue length does an incoming req see
system.mem_ctrls.wrQLenPdf::114                     0                       # What write queue length does an incoming req see
system.mem_ctrls.wrQLenPdf::115                     0                       # What write queue length does an incoming req see
system.mem_ctrls.wrQLenPdf::116                     0                       # What write queue length does an incoming req see
system.mem_ctrls.wrQLenPdf::117                     0                       # What write queue length does an incoming req see
system.mem_ctrls.wrQLenPdf::118                     0                       # What write queue length does an incoming req see
system.mem_ctrls.wrQLenPdf::119                     0                       # What write queue length does an incoming req see
system.mem_ctrls.wrQLenPdf::120                     0                       # What write queue length does an incoming req see
system.mem_ctrls.wrQLenPdf::121                     0                       # What write queue length does an incoming req see
system.mem_ctrls.wrQLenPdf::122                     0                       # What write queue length does an incoming req see
system.mem_ctrls.wrQLenPdf::123                     0                       # What write queue length does an incoming req see
system.mem_ctrls.wrQLenPdf::124                     0                       # What write queue length does an incoming req see
system.mem_ctrls.wrQLenPdf::125                     0                       # What write queue length does an incoming req see
system.mem_ctrls.wrQLenPdf::126                     0                       # What write queue length does an incoming req see
system.mem_ctrls.wrQLenPdf::127                     0                       # What write queue length does an incoming req see
system.mem_ctrls.bytesPerActivate::samples      1928678                       # Bytes accessed per row activation
system.mem_ctrls.bytesPerActivate::mean            64                       # Bytes accessed per row activation
system.mem_ctrls.bytesPerActivate::gmean    64.000000                       # Bytes accessed per row activation
system.mem_ctrls.bytesPerActivate::64-71      1928678    100.00%    100.00% # Bytes accessed per row activation
system.mem_ctrls.bytesPerActivate::total      1928678                       # Bytes accessed per row activation
system.mem_ctrls.rdPerTurnAround::samples        22215                       # Reads before turning the bus around for writes
system.mem_ctrls.rdPerTurnAround::mean      69.194958                       # Reads before turning the bus around for writes
system.mem_ctrls.rdPerTurnAround::gmean     27.315653                       # Reads before turning the bus around for writes
system.mem_ctrls.rdPerTurnAround::stdev   1636.151776                       # Reads before turning the bus around for writes
system.mem_ctrls.rdPerTurnAround::0-4095        22214    100.00%    100.00% # Reads before turning the bus around for writes
system.mem_ctrls.rdPerTurnAround::241664-245759            1      0.00%    100.00% # Reads before turning the bus around for writes
system.mem_ctrls.rdPerTurnAround::total         22215                       # Reads before turning the bus around for writes
system.mem_ctrls.wrPerTurnAround::samples        22215                       # Writes before turning the bus around for reads
system.mem_ctrls.wrPerTurnAround::mean      17.608013                       # Writes before turning the bus around for reads
system.mem_ctrls.wrPerTurnAround::gmean     17.589952                       # Writes before turning the bus around for reads
system.mem_ctrls.wrPerTurnAround::stdev      0.779179                       # Writes before turning the bus around for reads
system.mem_ctrls.wrPerTurnAround::16             4064     18.29%     18.29% # Writes before turning the bus around for reads
system.mem_ctrls.wrPerTurnAround::17              612      2.75%     21.05% # Writes before turning the bus around for reads
system.mem_ctrls.wrPerTurnAround::18            17507     78.81%     99.86% # Writes before turning the bus around for reads
system.mem_ctrls.wrPerTurnAround::19               32      0.14%    100.00% # Writes before turning the bus around for reads
system.mem_ctrls.wrPerTurnAround::total         22215                       # Writes before turning the bus around for reads
system.mem_ctrls.bytesReadDRAM               98401024                       # Total number of bytes read from DRAM
system.mem_ctrls.bytesReadWrQ                  403392                       # Total number of bytes read from write queue
system.mem_ctrls.bytesWritten                25034368                       # Total number of bytes written to DRAM
system.mem_ctrls.bytesReadSys                98804416                       # Total read bytes from the system interface side
system.mem_ctrls.bytesWrittenSys             25038400                       # Total written bytes from the system interface side
system.mem_ctrls.avgRdBW                        40.13                       # Average DRAM read bandwidth in MiByte/s
system.mem_ctrls.avgWrBW                        10.21                       # Average achieved write bandwidth in MiByte/s
system.mem_ctrls.avgRdBWSys                     40.30                       # Average system read bandwidth in MiByte/s
system.mem_ctrls.avgWrBWSys                     10.21                       # Average system write bandwidth in MiByte/s
system.mem_ctrls.peakBW                      19207.00                       # Theoretical peak bandwidth in MiByte/s
system.mem_ctrls.busUtil                         0.26                       # Data bus utilization in percentage
system.mem_ctrls.busUtilRead                     0.21                       # Data bus utilization in percentage for reads
system.mem_ctrls.busUtilWrite                    0.05                       # Data bus utilization in percentage for writes
system.mem_ctrls.totGap                  2451374727444                       # Total gap between requests
system.mem_ctrls.avgGap                    1266831.52                       # Average gap between requests
system.mem_ctrls.masterReadBytes::.cpu0.inst        28736                       # Per-master bytes read from memory
system.mem_ctrls.masterReadBytes::.cpu0.data     22238464                       # Per-master bytes read from memory
system.mem_ctrls.masterReadBytes::.cpu1.inst        51712                       # Per-master bytes read from memory
system.mem_ctrls.masterReadBytes::.cpu1.data     76082112                       # Per-master bytes read from memory
system.mem_ctrls.masterWriteBytes::.writebacks     25034368                       # Per-master bytes write to memory
system.mem_ctrls.masterReadRate::.cpu0.inst 11720.503193614251                       # Per-master bytes read from memory rate (Bytes/sec)
system.mem_ctrls.masterReadRate::.cpu0.data 9070364.293328074738                       # Per-master bytes read from memory rate (Bytes/sec)
system.mem_ctrls.masterReadRate::.cpu1.inst 21091.685034388232                       # Per-master bytes read from memory rate (Bytes/sec)
system.mem_ctrls.masterReadRate::.cpu1.data 31031480.953261315823                       # Per-master bytes read from memory rate (Bytes/sec)
system.mem_ctrls.masterWriteRate::.writebacks 10210724.877996744588                       # Per-master bytes write to memory rate (Bytes/sec)
system.mem_ctrls.masterReadAccesses::.cpu0.inst          449                       # Per-master read serviced memory accesses
system.mem_ctrls.masterReadAccesses::.cpu0.data       347476                       # Per-master read serviced memory accesses
system.mem_ctrls.masterReadAccesses::.cpu1.inst          808                       # Per-master read serviced memory accesses
system.mem_ctrls.masterReadAccesses::.cpu1.data      1195086                       # Per-master read serviced memory accesses
system.mem_ctrls.masterWriteAccesses::.writebacks       391225                       # Per-master write serviced memory accesses
system.mem_ctrls.masterReadTotalLat::.cpu0.inst     16043389                       # Per-master read total memory access latency
system.mem_ctrls.masterReadTotalLat::.cpu0.data  13107085931                       # Per-master read total memory access latency
system.mem_ctrls.masterReadTotalLat::.cpu1.inst     29753740                       # Per-master read total memory access latency
system.mem_ctrls.masterReadTotalLat::.cpu1.data  46258385986                       # Per-master read total memory access latency
system.mem_ctrls.masterWriteTotalLat::.writebacks 133899449759265                       # Per-master write total memory access latency
system.mem_ctrls.masterReadAvgLat::.cpu0.inst     35731.38                       # Per-master read average memory access latency
system.mem_ctrls.masterReadAvgLat::.cpu0.data     37720.84                       # Per-master read average memory access latency
system.mem_ctrls.masterReadAvgLat::.cpu1.inst     36823.94                       # Per-master read average memory access latency
system.mem_ctrls.masterReadAvgLat::.cpu1.data     38707.16                       # Per-master read average memory access latency
system.mem_ctrls.masterWriteAvgLat::.writebacks 342256884.81                       # Per-master write average memory access latency
system.mem_ctrls.pageHitRate                     0.00                       # Row buffer hit rate, read and write combined
system.mem_ctrls.rank1.actEnergy         1502101678.895322                       # Energy for activate commands per rank (pJ)
system.mem_ctrls.rank1.preEnergy         2651787194.663555                       # Energy for precharge commands per rank (pJ)
system.mem_ctrls.rank1.readEnergy        2105984005.308320                       # Energy for read commands per rank (pJ)
system.mem_ctrls.rank1.writeEnergy       461141189.712039                       # Energy for write commands per rank (pJ)
system.mem_ctrls.rank1.refreshEnergy     212827588424.141846                       # Energy for refresh commands per rank (pJ)
system.mem_ctrls.rank1.actBackEnergy     62597127919.005867                       # Energy for active background per rank (pJ)
system.mem_ctrls.rank1.preBackEnergy     757044076807.419189                       # Energy for precharge background per rank (pJ)
system.mem_ctrls.rank1.actPowerDownEnergy            0                       # Energy for active power-down per rank (pJ)
system.mem_ctrls.rank1.prePowerDownEnergy            0                       # Energy for precharge power-down per rank (pJ)
system.mem_ctrls.rank1.selfRefreshEnergy            0                       # Energy for self refresh per rank (pJ)
system.mem_ctrls.rank1.totalEnergy       1039189807228.217529                       # Total energy per rank (pJ)
system.mem_ctrls.rank1.averagePower        423.852570                       # Core power per rank (mW)
system.mem_ctrls.rank1.totalIdleTime                0                       # Total Idle time Per DRAM Rank
system.mem_ctrls.rank1.memoryStateTime::IDLE 2304167634326                       # Time in different power states
system.mem_ctrls.rank1.memoryStateTime::REF 110215350000                       # Time in different power states
system.mem_ctrls.rank1.memoryStateTime::SREF            0                       # Time in different power states
system.mem_ctrls.rank1.memoryStateTime::PRE_PDN            0                       # Time in different power states
system.mem_ctrls.rank1.memoryStateTime::ACT  37388882914                       # Time in different power states
system.mem_ctrls.rank1.memoryStateTime::ACT_PDN            0                       # Time in different power states
system.mem_ctrls.rank0.actEnergy         1505432506.031263                       # Energy for activate commands per rank (pJ)
system.mem_ctrls.rank0.preEnergy         2657667385.645930                       # Energy for precharge commands per rank (pJ)
system.mem_ctrls.rank0.readEnergy        2111272321.135527                       # Energy for read commands per rank (pJ)
system.mem_ctrls.rank0.writeEnergy       461631873.360040                       # Energy for write commands per rank (pJ)
system.mem_ctrls.rank0.refreshEnergy     212827588424.141846                       # Energy for refresh commands per rank (pJ)
system.mem_ctrls.rank0.actBackEnergy     62626120233.439919                       # Energy for active background per rank (pJ)
system.mem_ctrls.rank0.preBackEnergy     757024061808.626587                       # Energy for precharge background per rank (pJ)
system.mem_ctrls.rank0.actPowerDownEnergy            0                       # Energy for active power-down per rank (pJ)
system.mem_ctrls.rank0.prePowerDownEnergy            0                       # Energy for precharge power-down per rank (pJ)
system.mem_ctrls.rank0.selfRefreshEnergy            0                       # Energy for self refresh per rank (pJ)
system.mem_ctrls.rank0.totalEnergy       1039213774561.477539                       # Total energy per rank (pJ)
system.mem_ctrls.rank0.averagePower        423.862346                       # Core power per rank (mW)
system.mem_ctrls.rank0.totalIdleTime                0                       # Total Idle time Per DRAM Rank
system.mem_ctrls.rank0.memoryStateTime::IDLE 2304081641795                       # Time in different power states
system.mem_ctrls.rank0.memoryStateTime::REF 110215350000                       # Time in different power states
system.mem_ctrls.rank0.memoryStateTime::SREF            0                       # Time in different power states
system.mem_ctrls.rank0.memoryStateTime::PRE_PDN            0                       # Time in different power states
system.mem_ctrls.rank0.memoryStateTime::ACT  37474875445                       # Time in different power states
system.mem_ctrls.rank0.memoryStateTime::ACT_PDN            0                       # Time in different power states
system.cpu_clk_domain.clock                       333                       # Clock period in ticks
system.tol2bus.pwrStateResidencyTicks::UNDEFINED 2451771867240                       # Cumulative time (in ticks) in various power states
system.tol2bus.trans_dist::ReadResp         111664755                       # Transaction distribution
system.tol2bus.trans_dist::WritebackDirty     75544786                       # Transaction distribution
system.tol2bus.trans_dist::WritebackClean          322                       # Transaction distribution
system.tol2bus.trans_dist::CleanEvict        50061357                       # Transaction distribution
system.tol2bus.trans_dist::ReadExReq         12660752                       # Transaction distribution
system.tol2bus.trans_dist::ReadExResp        12660752                       # Transaction distribution
system.tol2bus.trans_dist::ReadCleanReq          1265                       # Transaction distribution
system.tol2bus.trans_dist::ReadSharedReq    111663490                       # Transaction distribution
system.tol2bus.pkt_count_system.cpu0.icache.mem_side::system.l2.cpu_side          916                       # Packet count per connected master and slave (bytes)
system.tol2bus.pkt_count_system.cpu0.dcache.mem_side::system.l2.cpu_side      1043740                       # Packet count per connected master and slave (bytes)
system.tol2bus.pkt_count_system.cpu1.icache.mem_side::system.l2.cpu_side         1936                       # Packet count per connected master and slave (bytes)
system.tol2bus.pkt_count_system.cpu1.dcache.mem_side::system.l2.cpu_side    371928970                       # Packet count per connected master and slave (bytes)
system.tol2bus.pkt_count::total             372975562                       # Packet count per connected master and slave (bytes)
system.tol2bus.pkt_size_system.cpu0.icache.mem_side::system.l2.cpu_side        29888                       # Cumulative packet size per connected master and slave (bytes)
system.tol2bus.pkt_size_system.cpu0.dcache.mem_side::system.l2.cpu_side     22299520                       # Cumulative packet size per connected master and slave (bytes)
system.tol2bus.pkt_size_system.cpu1.icache.mem_side::system.l2.cpu_side        71680                       # Cumulative packet size per connected master and slave (bytes)
system.tol2bus.pkt_size_system.cpu1.dcache.mem_side::system.l2.cpu_side  12744279872                       # Cumulative packet size per connected master and slave (bytes)
system.tol2bus.pkt_size::total            12766680960                       # Cumulative packet size per connected master and slave (bytes)
system.tol2bus.snoops                         1281917                       # Total snoops (count)
system.tol2bus.snoopTraffic                  25038400                       # Total snoop traffic (bytes)
system.tol2bus.snoop_fanout::samples        125607424                       # Request fanout histogram
system.tol2bus.snoop_fanout::mean            0.000009                       # Request fanout histogram
system.tol2bus.snoop_fanout::stdev           0.003044                       # Request fanout histogram
system.tol2bus.snoop_fanout::underflows             0      0.00%      0.00% # Request fanout histogram
system.tol2bus.snoop_fanout::0              125606260    100.00%    100.00% # Request fanout histogram
system.tol2bus.snoop_fanout::1                   1164      0.00%    100.00% # Request fanout histogram
system.tol2bus.snoop_fanout::2                      0      0.00%    100.00% # Request fanout histogram
system.tol2bus.snoop_fanout::3                      0      0.00%    100.00% # Request fanout histogram
system.tol2bus.snoop_fanout::4                      0      0.00%    100.00% # Request fanout histogram
system.tol2bus.snoop_fanout::5                      0      0.00%    100.00% # Request fanout histogram
system.tol2bus.snoop_fanout::6                      0      0.00%    100.00% # Request fanout histogram
system.tol2bus.snoop_fanout::7                      0      0.00%    100.00% # Request fanout histogram
system.tol2bus.snoop_fanout::8                      0      0.00%    100.00% # Request fanout histogram
system.tol2bus.snoop_fanout::overflows              0      0.00%    100.00% # Request fanout histogram
system.tol2bus.snoop_fanout::min_value              0                       # Request fanout histogram
system.tol2bus.snoop_fanout::max_value              1                       # Request fanout histogram
system.tol2bus.snoop_fanout::total          125607424                       # Request fanout histogram
system.tol2bus.reqLayer0.occupancy       132852954393                       # Layer occupancy (ticks)
system.tol2bus.reqLayer0.utilization              5.4                       # Layer utilization (%)
system.tol2bus.respLayer5.occupancy      123852350006                       # Layer occupancy (ticks)
system.tol2bus.respLayer5.utilization             5.1                       # Layer utilization (%)
system.tol2bus.respLayer4.occupancy            815184                       # Layer occupancy (ticks)
system.tol2bus.respLayer4.utilization             0.0                       # Layer utilization (%)
system.tol2bus.respLayer1.occupancy         348906376                       # Layer occupancy (ticks)
system.tol2bus.respLayer1.utilization             0.0                       # Layer utilization (%)
system.tol2bus.respLayer0.occupancy            449215                       # Layer occupancy (ticks)
system.tol2bus.respLayer0.utilization             0.0                       # Layer utilization (%)

---------- End Simulation Statistics   ----------
