
---------- Begin Simulation Statistics ----------
final_tick                               1579820433498                       # Number of ticks from beginning of simulation (restored from checkpoints and never reset)
host_inst_rate                                 679448                       # Simulator instruction rate (inst/s)
host_mem_usage                                8642736                       # Number of bytes of host memory used
host_op_rate                                  1104247                       # Simulator op (including micro ops) rate (op/s)
host_seconds                                  1512.68                       # Real time elapsed on the host
host_tick_rate                             1044383833                       # Simulator tick rate (ticks/s)
sim_freq                                 1000000000000                       # Frequency of simulated ticks
sim_insts                                  1027788100                       # Number of instructions simulated
sim_ops                                    1670373689                       # Number of ops (including micro ops) simulated
sim_seconds                                  1.579820                       # Number of seconds simulated
sim_ticks                                1579820433498                       # Number of ticks simulated
system.cpu0.Branches                          2780018                       # Number of branches fetched
system.cpu0.committedInsts                   27788099                       # Number of instructions committed
system.cpu0.committedOps                     52797721                       # Number of ops (including micro ops) committed
system.cpu0.dtb.rdAccesses                   11113063                       # TLB accesses on read requests
system.cpu0.dtb.rdMisses                         5446                       # TLB misses on read requests
system.cpu0.dtb.wrAccesses                    5557395                       # TLB accesses on write requests
system.cpu0.dtb.wrMisses                            8                       # TLB misses on write requests
system.cpu0.idle_fraction                    0.958010                       # Percentage of idle cycles
system.cpu0.itb.rdAccesses                          0                       # TLB accesses on read requests
system.cpu0.itb.rdMisses                            0                       # TLB misses on read requests
system.cpu0.itb.wrAccesses                   38902351                       # TLB accesses on write requests
system.cpu0.itb.wrMisses                           46                       # TLB misses on write requests
system.cpu0.not_idle_fraction                0.041990                       # Percentage of non-idle cycles
system.cpu0.numCycles                       199207910                       # number of cpu cycles simulated
system.cpu0.numWorkItemsCompleted                   0                       # number of work items this cpu completed
system.cpu0.numWorkItemsStarted                     0                       # number of work items this cpu started
system.cpu0.num_busy_cycles              8364686.427760                       # Number of busy cycles
system.cpu0.num_cc_register_reads            13899961                       # number of times the CC registers were read
system.cpu0.num_cc_register_writes           16672913                       # number of times the CC registers were written
system.cpu0.num_conditional_control_insts      2779471                       # number of instructions that are conditional controls
system.cpu0.num_fp_alu_accesses                  1214                       # Number of float alu accesses
system.cpu0.num_fp_insts                         1214                       # number of float instructions
system.cpu0.num_fp_register_reads                1401                       # number of times the floating registers were read
system.cpu0.num_fp_register_writes                679                       # number of times the floating registers were written
system.cpu0.num_func_calls                        384                       # number of times a function call or return occured
system.cpu0.num_idle_cycles              190843223.572240                       # Number of idle cycles
system.cpu0.num_int_alu_accesses             52796880                       # Number of integer alu accesses
system.cpu0.num_int_insts                    52796880                       # number of integer instructions
system.cpu0.num_int_register_reads          105592520                       # number of times the integer registers were read
system.cpu0.num_int_register_writes          44459432                       # number of times the integer registers were written
system.cpu0.num_load_insts                   11113060                       # Number of load instructions
system.cpu0.num_mem_refs                     16670454                       # number of memory refs
system.cpu0.num_store_insts                   5557394                       # Number of store instructions
system.cpu0.num_vec_alu_accesses                    0                       # Number of vector alu accesses
system.cpu0.num_vec_insts                           0                       # number of vector instructions
system.cpu0.num_vec_register_reads                  0                       # number of times the vector registers were read
system.cpu0.num_vec_register_writes                 0                       # number of times the vector registers were written
system.cpu0.op_class::No_OpClass                  336      0.00%      0.00% # Class of executed instruction
system.cpu0.op_class::IntAlu                 36126368     68.42%     68.42% # Class of executed instruction
system.cpu0.op_class::IntMult                       5      0.00%     68.42% # Class of executed instruction
system.cpu0.op_class::IntDiv                       28      0.00%     68.42% # Class of executed instruction
system.cpu0.op_class::FloatAdd                    144      0.00%     68.43% # Class of executed instruction
system.cpu0.op_class::FloatCmp                      0      0.00%     68.43% # Class of executed instruction
system.cpu0.op_class::FloatCvt                      0      0.00%     68.43% # Class of executed instruction
system.cpu0.op_class::FloatMult                     0      0.00%     68.43% # Class of executed instruction
system.cpu0.op_class::FloatMultAcc                  0      0.00%     68.43% # Class of executed instruction
system.cpu0.op_class::FloatDiv                      0      0.00%     68.43% # Class of executed instruction
system.cpu0.op_class::FloatMisc                     0      0.00%     68.43% # Class of executed instruction
system.cpu0.op_class::FloatSqrt                     0      0.00%     68.43% # Class of executed instruction
system.cpu0.op_class::SimdAdd                       0      0.00%     68.43% # Class of executed instruction
system.cpu0.op_class::SimdAddAcc                    0      0.00%     68.43% # Class of executed instruction
system.cpu0.op_class::SimdAlu                     104      0.00%     68.43% # Class of executed instruction
system.cpu0.op_class::SimdCmp                       0      0.00%     68.43% # Class of executed instruction
system.cpu0.op_class::SimdCvt                      54      0.00%     68.43% # Class of executed instruction
system.cpu0.op_class::SimdMisc                    228      0.00%     68.43% # Class of executed instruction
system.cpu0.op_class::SimdMult                      0      0.00%     68.43% # Class of executed instruction
system.cpu0.op_class::SimdMultAcc                   0      0.00%     68.43% # Class of executed instruction
system.cpu0.op_class::SimdShift                     0      0.00%     68.43% # Class of executed instruction
system.cpu0.op_class::SimdShiftAcc                  0      0.00%     68.43% # Class of executed instruction
system.cpu0.op_class::SimdDiv                       0      0.00%     68.43% # Class of executed instruction
system.cpu0.op_class::SimdSqrt                      0      0.00%     68.43% # Class of executed instruction
system.cpu0.op_class::SimdFloatAdd                  0      0.00%     68.43% # Class of executed instruction
system.cpu0.op_class::SimdFloatAlu                  0      0.00%     68.43% # Class of executed instruction
system.cpu0.op_class::SimdFloatCmp                  0      0.00%     68.43% # Class of executed instruction
system.cpu0.op_class::SimdFloatCvt                  0      0.00%     68.43% # Class of executed instruction
system.cpu0.op_class::SimdFloatDiv                  0      0.00%     68.43% # Class of executed instruction
system.cpu0.op_class::SimdFloatMisc                 0      0.00%     68.43% # Class of executed instruction
system.cpu0.op_class::SimdFloatMult                 0      0.00%     68.43% # Class of executed instruction
system.cpu0.op_class::SimdFloatMultAcc              0      0.00%     68.43% # Class of executed instruction
system.cpu0.op_class::SimdFloatSqrt                 0      0.00%     68.43% # Class of executed instruction
system.cpu0.op_class::SimdReduceAdd                 0      0.00%     68.43% # Class of executed instruction
system.cpu0.op_class::SimdReduceAlu                 0      0.00%     68.43% # Class of executed instruction
system.cpu0.op_class::SimdReduceCmp                 0      0.00%     68.43% # Class of executed instruction
system.cpu0.op_class::SimdFloatReduceAdd            0      0.00%     68.43% # Class of executed instruction
system.cpu0.op_class::SimdFloatReduceCmp            0      0.00%     68.43% # Class of executed instruction
system.cpu0.op_class::SimdAes                       0      0.00%     68.43% # Class of executed instruction
system.cpu0.op_class::SimdAesMix                    0      0.00%     68.43% # Class of executed instruction
system.cpu0.op_class::SimdSha1Hash                  0      0.00%     68.43% # Class of executed instruction
system.cpu0.op_class::SimdSha1Hash2                 0      0.00%     68.43% # Class of executed instruction
system.cpu0.op_class::SimdSha256Hash                0      0.00%     68.43% # Class of executed instruction
system.cpu0.op_class::SimdSha256Hash2               0      0.00%     68.43% # Class of executed instruction
system.cpu0.op_class::SimdShaSigma2                 0      0.00%     68.43% # Class of executed instruction
system.cpu0.op_class::SimdShaSigma3                 0      0.00%     68.43% # Class of executed instruction
system.cpu0.op_class::SimdPredAlu                   0      0.00%     68.43% # Class of executed instruction
system.cpu0.op_class::MemRead                11113000     21.05%     89.47% # Class of executed instruction
system.cpu0.op_class::MemWrite                5556913     10.52%    100.00% # Class of executed instruction
system.cpu0.op_class::FloatMemRead                 60      0.00%    100.00% # Class of executed instruction
system.cpu0.op_class::FloatMemWrite               481      0.00%    100.00% # Class of executed instruction
system.cpu0.op_class::IprAccess                     0      0.00%    100.00% # Class of executed instruction
system.cpu0.op_class::InstPrefetch                  0      0.00%    100.00% # Class of executed instruction
system.cpu0.op_class::total                  52797721                       # Class of executed instruction
system.cpu0.workload.numSyscalls                   12                       # Number of system calls
system.cpu1.Branches                         23008527                       # Number of branches fetched
system.cpu1.committedInsts                 1000000001                       # Number of instructions committed
system.cpu1.committedOps                   1617575968                       # Number of ops (including micro ops) committed
system.cpu1.dtb.rdAccesses                  343819956                       # TLB accesses on read requests
system.cpu1.dtb.rdMisses                        68713                       # TLB misses on read requests
system.cpu1.dtb.wrAccesses                   99058720                       # TLB accesses on write requests
system.cpu1.dtb.wrMisses                        33418                       # TLB misses on write requests
system.cpu1.idle_fraction                           0                       # Percentage of idle cycles
system.cpu1.itb.rdAccesses                          0                       # TLB accesses on read requests
system.cpu1.itb.rdMisses                            0                       # TLB misses on read requests
system.cpu1.itb.wrAccesses                 1364911729                       # TLB accesses on write requests
system.cpu1.itb.wrMisses                          128                       # TLB misses on write requests
system.cpu1.not_idle_fraction                       1                       # Percentage of non-idle cycles
system.cpu1.numCycles                      4744205506                       # number of cpu cycles simulated
system.cpu1.numWorkItemsCompleted                   0                       # number of work items this cpu completed
system.cpu1.numWorkItemsStarted                     0                       # number of work items this cpu started
system.cpu1.num_busy_cycles                4744205506                       # Number of busy cycles
system.cpu1.num_cc_register_reads           227944540                       # number of times the CC registers were read
system.cpu1.num_cc_register_writes          797988446                       # number of times the CC registers were written
system.cpu1.num_conditional_control_insts     19304568                       # number of instructions that are conditional controls
system.cpu1.num_fp_alu_accesses              44477827                       # Number of float alu accesses
system.cpu1.num_fp_insts                     44477827                       # number of float instructions
system.cpu1.num_fp_register_reads            53302410                       # number of times the floating registers were read
system.cpu1.num_fp_register_writes           33595578                       # number of times the floating registers were written
system.cpu1.num_func_calls                    2570266                       # number of times a function call or return occured
system.cpu1.num_idle_cycles                         0                       # Number of idle cycles
system.cpu1.num_int_alu_accesses           1597434578                       # Number of integer alu accesses
system.cpu1.num_int_insts                  1597434578                       # number of integer instructions
system.cpu1.num_int_register_reads         3747515143                       # number of times the integer registers were read
system.cpu1.num_int_register_writes        1554931162                       # number of times the integer registers were written
system.cpu1.num_load_insts                  343812017                       # Number of load instructions
system.cpu1.num_mem_refs                    442870477                       # number of memory refs
system.cpu1.num_store_insts                  99058460                       # Number of store instructions
system.cpu1.num_vec_alu_accesses                    0                       # Number of vector alu accesses
system.cpu1.num_vec_insts                           0                       # number of vector instructions
system.cpu1.num_vec_register_reads                  0                       # number of times the vector registers were read
system.cpu1.num_vec_register_writes                 0                       # number of times the vector registers were written
system.cpu1.op_class::No_OpClass              2034530      0.13%      0.13% # Class of executed instruction
system.cpu1.op_class::IntAlu               1058697980     65.45%     65.58% # Class of executed instruction
system.cpu1.op_class::IntMult                94970277      5.87%     71.45% # Class of executed instruction
system.cpu1.op_class::IntDiv                    97135      0.01%     71.45% # Class of executed instruction
system.cpu1.op_class::FloatAdd                1716706      0.11%     71.56% # Class of executed instruction
system.cpu1.op_class::FloatCmp                      0      0.00%     71.56% # Class of executed instruction
system.cpu1.op_class::FloatCvt                      0      0.00%     71.56% # Class of executed instruction
system.cpu1.op_class::FloatMult                     0      0.00%     71.56% # Class of executed instruction
system.cpu1.op_class::FloatMultAcc                  0      0.00%     71.56% # Class of executed instruction
system.cpu1.op_class::FloatDiv                      0      0.00%     71.56% # Class of executed instruction
system.cpu1.op_class::FloatMisc                     0      0.00%     71.56% # Class of executed instruction
system.cpu1.op_class::FloatSqrt                     0      0.00%     71.56% # Class of executed instruction
system.cpu1.op_class::SimdAdd                    1792      0.00%     71.56% # Class of executed instruction
system.cpu1.op_class::SimdAddAcc                    0      0.00%     71.56% # Class of executed instruction
system.cpu1.op_class::SimdAlu                 2854714      0.18%     71.74% # Class of executed instruction
system.cpu1.op_class::SimdCmp                     192      0.00%     71.74% # Class of executed instruction
system.cpu1.op_class::SimdCvt                    3968      0.00%     71.74% # Class of executed instruction
system.cpu1.op_class::SimdMisc                3003961      0.19%     71.92% # Class of executed instruction
system.cpu1.op_class::SimdMult                    400      0.00%     71.92% # Class of executed instruction
system.cpu1.op_class::SimdMultAcc                   0      0.00%     71.92% # Class of executed instruction
system.cpu1.op_class::SimdShift                  1298      0.00%     71.92% # Class of executed instruction
system.cpu1.op_class::SimdShiftAcc                  0      0.00%     71.92% # Class of executed instruction
system.cpu1.op_class::SimdDiv                       0      0.00%     71.92% # Class of executed instruction
system.cpu1.op_class::SimdSqrt                      0      0.00%     71.92% # Class of executed instruction
system.cpu1.op_class::SimdFloatAdd            5186086      0.32%     72.24% # Class of executed instruction
system.cpu1.op_class::SimdFloatAlu                  0      0.00%     72.24% # Class of executed instruction
system.cpu1.op_class::SimdFloatCmp                  0      0.00%     72.24% # Class of executed instruction
system.cpu1.op_class::SimdFloatCvt            2520598      0.16%     72.40% # Class of executed instruction
system.cpu1.op_class::SimdFloatDiv                 15      0.00%     72.40% # Class of executed instruction
system.cpu1.op_class::SimdFloatMisc                 0      0.00%     72.40% # Class of executed instruction
system.cpu1.op_class::SimdFloatMult           3615839      0.22%     72.62% # Class of executed instruction
system.cpu1.op_class::SimdFloatMultAcc              0      0.00%     72.62% # Class of executed instruction
system.cpu1.op_class::SimdFloatSqrt                 0      0.00%     72.62% # Class of executed instruction
system.cpu1.op_class::SimdReduceAdd                 0      0.00%     72.62% # Class of executed instruction
system.cpu1.op_class::SimdReduceAlu                 0      0.00%     72.62% # Class of executed instruction
system.cpu1.op_class::SimdReduceCmp                 0      0.00%     72.62% # Class of executed instruction
system.cpu1.op_class::SimdFloatReduceAdd            0      0.00%     72.62% # Class of executed instruction
system.cpu1.op_class::SimdFloatReduceCmp            0      0.00%     72.62% # Class of executed instruction
system.cpu1.op_class::SimdAes                       0      0.00%     72.62% # Class of executed instruction
system.cpu1.op_class::SimdAesMix                    0      0.00%     72.62% # Class of executed instruction
system.cpu1.op_class::SimdSha1Hash                  0      0.00%     72.62% # Class of executed instruction
system.cpu1.op_class::SimdSha1Hash2                 0      0.00%     72.62% # Class of executed instruction
system.cpu1.op_class::SimdSha256Hash                0      0.00%     72.62% # Class of executed instruction
system.cpu1.op_class::SimdSha256Hash2               0      0.00%     72.62% # Class of executed instruction
system.cpu1.op_class::SimdShaSigma2                 0      0.00%     72.62% # Class of executed instruction
system.cpu1.op_class::SimdShaSigma3                 0      0.00%     72.62% # Class of executed instruction
system.cpu1.op_class::SimdPredAlu                   0      0.00%     72.62% # Class of executed instruction
system.cpu1.op_class::MemRead               329452459     20.37%     92.99% # Class of executed instruction
system.cpu1.op_class::MemWrite               89748799      5.55%     98.54% # Class of executed instruction
system.cpu1.op_class::FloatMemRead           14359558      0.89%     99.42% # Class of executed instruction
system.cpu1.op_class::FloatMemWrite           9309661      0.58%    100.00% # Class of executed instruction
system.cpu1.op_class::IprAccess                     0      0.00%    100.00% # Class of executed instruction
system.cpu1.op_class::InstPrefetch                  0      0.00%    100.00% # Class of executed instruction
system.cpu1.op_class::total                1617575968                       # Class of executed instruction
system.cpu1.workload.numSyscalls                  579                       # Number of system calls
system.membus.snoop_filter.hit_multi_requests            0                       # Number of requests hitting in the snoop filter with multiple (>1) holders of the requested data.
system.membus.snoop_filter.hit_multi_snoops            0                       # Number of snoops hitting in the snoop filter with multiple (>1) holders of the requested data.
system.membus.snoop_filter.hit_single_requests      2083463                       # Number of requests hitting in the snoop filter with a single holder of the requested data.
system.membus.snoop_filter.hit_single_snoops            0                       # Number of snoops hitting in the snoop filter with a single holder of the requested data.
system.membus.snoop_filter.tot_requests       4430021                       # Total number of requests made to the snoop filter.
system.membus.snoop_filter.tot_snoops               0                       # Total number of snoops made to the snoop filter.
system.tol2bus.snoop_filter.hit_multi_requests            0                       # Number of requests hitting in the snoop filter with multiple (>1) holders of the requested data.
system.tol2bus.snoop_filter.hit_multi_snoops            0                       # Number of snoops hitting in the snoop filter with multiple (>1) holders of the requested data.
system.tol2bus.snoop_filter.hit_single_requests     23825053                       # Number of requests hitting in the snoop filter with a single holder of the requested data.
system.tol2bus.snoop_filter.hit_single_snoops         1400                       # Number of snoops hitting in the snoop filter with a single holder of the requested data.
system.tol2bus.snoop_filter.tot_requests     47651065                       # Total number of requests made to the snoop filter.
system.tol2bus.snoop_filter.tot_snoops           1400                       # Total number of snoops made to the snoop filter.
system.membus.pwrStateResidencyTicks::UNDEFINED 1579820433498                       # Cumulative time (in ticks) in various power states
system.membus.trans_dist::ReadResp             502625                       # Transaction distribution
system.membus.trans_dist::WritebackDirty      1603809                       # Transaction distribution
system.membus.trans_dist::CleanEvict           479654                       # Transaction distribution
system.membus.trans_dist::ReadExReq           1843933                       # Transaction distribution
system.membus.trans_dist::ReadExResp          1843933                       # Transaction distribution
system.membus.trans_dist::ReadSharedReq        502625                       # Transaction distribution
system.membus.pkt_count_system.l2.mem_side::system.mem_ctrls.port      6776579                       # Packet count per connected master and slave (bytes)
system.membus.pkt_count_system.l2.mem_side::total      6776579                       # Packet count per connected master and slave (bytes)
system.membus.pkt_count::total                6776579                       # Packet count per connected master and slave (bytes)
system.membus.pkt_size_system.l2.mem_side::system.mem_ctrls.port    252823488                       # Cumulative packet size per connected master and slave (bytes)
system.membus.pkt_size_system.l2.mem_side::total    252823488                       # Cumulative packet size per connected master and slave (bytes)
system.membus.pkt_size::total               252823488                       # Cumulative packet size per connected master and slave (bytes)
system.membus.snoops                                0                       # Total snoops (count)
system.membus.snoopTraffic                          0                       # Total snoop traffic (bytes)
system.membus.snoop_fanout::samples           2346558                       # Request fanout histogram
system.membus.snoop_fanout::mean                    0                       # Request fanout histogram
system.membus.snoop_fanout::stdev                   0                       # Request fanout histogram
system.membus.snoop_fanout::underflows              0      0.00%      0.00% # Request fanout histogram
system.membus.snoop_fanout::0                 2346558    100.00%    100.00% # Request fanout histogram
system.membus.snoop_fanout::1                       0      0.00%    100.00% # Request fanout histogram
system.membus.snoop_fanout::overflows               0      0.00%    100.00% # Request fanout histogram
system.membus.snoop_fanout::min_value               0                       # Request fanout histogram
system.membus.snoop_fanout::max_value               0                       # Request fanout histogram
system.membus.snoop_fanout::total             2346558                       # Request fanout histogram
system.membus.reqLayer4.occupancy         13347219278                       # Layer occupancy (ticks)
system.membus.reqLayer4.utilization               0.8                       # Layer utilization (%)
system.membus.respLayer1.occupancy        12563745731                       # Layer occupancy (ticks)
system.membus.respLayer1.utilization              0.8                       # Layer utilization (%)
system.voltage_domain.voltage                       1                       # Voltage in Volts
system.clk_domain.clock                          1000                       # Clock period in ticks
system.cpu0.numPwrStateTransitions                  1                       # Number of power state transitions
system.cpu0.pwrStateResidencyTicks::ON   1579820433498                       # Cumulative time (in ticks) in various power states
system.cpu0.icache.pwrStateResidencyTicks::UNDEFINED 1579820433498                       # Cumulative time (in ticks) in various power states
system.cpu0.icache.demand_hits::.cpu0.inst     38901902                       # number of demand (read+write) hits
system.cpu0.icache.demand_hits::total        38901902                       # number of demand (read+write) hits
system.cpu0.icache.overall_hits::.cpu0.inst     38901902                       # number of overall hits
system.cpu0.icache.overall_hits::total       38901902                       # number of overall hits
system.cpu0.icache.demand_misses::.cpu0.inst          449                       # number of demand (read+write) misses
system.cpu0.icache.demand_misses::total           449                       # number of demand (read+write) misses
system.cpu0.icache.overall_misses::.cpu0.inst          449                       # number of overall misses
system.cpu0.icache.overall_misses::total          449                       # number of overall misses
system.cpu0.icache.demand_miss_latency::.cpu0.inst     37890738                       # number of demand (read+write) miss cycles
system.cpu0.icache.demand_miss_latency::total     37890738                       # number of demand (read+write) miss cycles
system.cpu0.icache.overall_miss_latency::.cpu0.inst     37890738                       # number of overall miss cycles
system.cpu0.icache.overall_miss_latency::total     37890738                       # number of overall miss cycles
system.cpu0.icache.demand_accesses::.cpu0.inst     38902351                       # number of demand (read+write) accesses
system.cpu0.icache.demand_accesses::total     38902351                       # number of demand (read+write) accesses
system.cpu0.icache.overall_accesses::.cpu0.inst     38902351                       # number of overall (read+write) accesses
system.cpu0.icache.overall_accesses::total     38902351                       # number of overall (read+write) accesses
system.cpu0.icache.demand_miss_rate::.cpu0.inst     0.000012                       # miss rate for demand accesses
system.cpu0.icache.demand_miss_rate::total     0.000012                       # miss rate for demand accesses
system.cpu0.icache.overall_miss_rate::.cpu0.inst     0.000012                       # miss rate for overall accesses
system.cpu0.icache.overall_miss_rate::total     0.000012                       # miss rate for overall accesses
system.cpu0.icache.demand_avg_miss_latency::.cpu0.inst 84389.171492                       # average overall miss latency
system.cpu0.icache.demand_avg_miss_latency::total 84389.171492                       # average overall miss latency
system.cpu0.icache.overall_avg_miss_latency::.cpu0.inst 84389.171492                       # average overall miss latency
system.cpu0.icache.overall_avg_miss_latency::total 84389.171492                       # average overall miss latency
system.cpu0.icache.blocked_cycles::no_mshrs            0                       # number of cycles access was blocked
system.cpu0.icache.blocked_cycles::no_targets            0                       # number of cycles access was blocked
system.cpu0.icache.blocked::no_mshrs                0                       # number of cycles access was blocked
system.cpu0.icache.blocked::no_targets              0                       # number of cycles access was blocked
system.cpu0.icache.avg_blocked_cycles::no_mshrs          nan                       # average number of cycles each access was blocked
system.cpu0.icache.avg_blocked_cycles::no_targets          nan                       # average number of cycles each access was blocked
system.cpu0.icache.writebacks::.writebacks           18                       # number of writebacks
system.cpu0.icache.writebacks::total               18                       # number of writebacks
system.cpu0.icache.demand_mshr_misses::.cpu0.inst          449                       # number of demand (read+write) MSHR misses
system.cpu0.icache.demand_mshr_misses::total          449                       # number of demand (read+write) MSHR misses
system.cpu0.icache.overall_mshr_misses::.cpu0.inst          449                       # number of overall MSHR misses
system.cpu0.icache.overall_mshr_misses::total          449                       # number of overall MSHR misses
system.cpu0.icache.demand_mshr_miss_latency::.cpu0.inst     37591704                       # number of demand (read+write) MSHR miss cycles
system.cpu0.icache.demand_mshr_miss_latency::total     37591704                       # number of demand (read+write) MSHR miss cycles
system.cpu0.icache.overall_mshr_miss_latency::.cpu0.inst     37591704                       # number of overall MSHR miss cycles
system.cpu0.icache.overall_mshr_miss_latency::total     37591704                       # number of overall MSHR miss cycles
system.cpu0.icache.demand_mshr_miss_rate::.cpu0.inst     0.000012                       # mshr miss rate for demand accesses
system.cpu0.icache.demand_mshr_miss_rate::total     0.000012                       # mshr miss rate for demand accesses
system.cpu0.icache.overall_mshr_miss_rate::.cpu0.inst     0.000012                       # mshr miss rate for overall accesses
system.cpu0.icache.overall_mshr_miss_rate::total     0.000012                       # mshr miss rate for overall accesses
system.cpu0.icache.demand_avg_mshr_miss_latency::.cpu0.inst 83723.171492                       # average overall mshr miss latency
system.cpu0.icache.demand_avg_mshr_miss_latency::total 83723.171492                       # average overall mshr miss latency
system.cpu0.icache.overall_avg_mshr_miss_latency::.cpu0.inst 83723.171492                       # average overall mshr miss latency
system.cpu0.icache.overall_avg_mshr_miss_latency::total 83723.171492                       # average overall mshr miss latency
system.cpu0.icache.replacements                    18                       # number of replacements
system.cpu0.icache.ReadReq_hits::.cpu0.inst     38901902                       # number of ReadReq hits
system.cpu0.icache.ReadReq_hits::total       38901902                       # number of ReadReq hits
system.cpu0.icache.ReadReq_misses::.cpu0.inst          449                       # number of ReadReq misses
system.cpu0.icache.ReadReq_misses::total          449                       # number of ReadReq misses
system.cpu0.icache.ReadReq_miss_latency::.cpu0.inst     37890738                       # number of ReadReq miss cycles
system.cpu0.icache.ReadReq_miss_latency::total     37890738                       # number of ReadReq miss cycles
system.cpu0.icache.ReadReq_accesses::.cpu0.inst     38902351                       # number of ReadReq accesses(hits+misses)
system.cpu0.icache.ReadReq_accesses::total     38902351                       # number of ReadReq accesses(hits+misses)
system.cpu0.icache.ReadReq_miss_rate::.cpu0.inst     0.000012                       # miss rate for ReadReq accesses
system.cpu0.icache.ReadReq_miss_rate::total     0.000012                       # miss rate for ReadReq accesses
system.cpu0.icache.ReadReq_avg_miss_latency::.cpu0.inst 84389.171492                       # average ReadReq miss latency
system.cpu0.icache.ReadReq_avg_miss_latency::total 84389.171492                       # average ReadReq miss latency
system.cpu0.icache.ReadReq_mshr_misses::.cpu0.inst          449                       # number of ReadReq MSHR misses
system.cpu0.icache.ReadReq_mshr_misses::total          449                       # number of ReadReq MSHR misses
system.cpu0.icache.ReadReq_mshr_miss_latency::.cpu0.inst     37591704                       # number of ReadReq MSHR miss cycles
system.cpu0.icache.ReadReq_mshr_miss_latency::total     37591704                       # number of ReadReq MSHR miss cycles
system.cpu0.icache.ReadReq_mshr_miss_rate::.cpu0.inst     0.000012                       # mshr miss rate for ReadReq accesses
system.cpu0.icache.ReadReq_mshr_miss_rate::total     0.000012                       # mshr miss rate for ReadReq accesses
system.cpu0.icache.ReadReq_avg_mshr_miss_latency::.cpu0.inst 83723.171492                       # average ReadReq mshr miss latency
system.cpu0.icache.ReadReq_avg_mshr_miss_latency::total 83723.171492                       # average ReadReq mshr miss latency
system.cpu0.icache.tags.pwrStateResidencyTicks::UNDEFINED 1579820433498                       # Cumulative time (in ticks) in various power states
system.cpu0.icache.tags.tagsinuse          427.508783                       # Cycle average of tags in use
system.cpu0.icache.tags.total_refs           38902351                       # Total number of references to valid blocks.
system.cpu0.icache.tags.sampled_refs              449                       # Sample count of references to valid blocks.
system.cpu0.icache.tags.avg_refs         86642.207127                       # Average number of references to valid blocks.
system.cpu0.icache.tags.warmup_cycle            83250                       # Cycle when the warmup percentage was hit.
system.cpu0.icache.tags.occ_blocks::.cpu0.inst   427.508783                       # Average occupied blocks per requestor
system.cpu0.icache.tags.occ_percent::.cpu0.inst     0.834978                       # Average percentage of cache occupancy
system.cpu0.icache.tags.occ_percent::total     0.834978                       # Average percentage of cache occupancy
system.cpu0.icache.tags.occ_task_id_blocks::1024          431                       # Occupied blocks per task id
system.cpu0.icache.tags.age_task_id_blocks_1024::4          431                       # Occupied blocks per task id
system.cpu0.icache.tags.occ_task_id_percent::1024     0.841797                       # Percentage of cache occupancy per task id
system.cpu0.icache.tags.tag_accesses        311219257                       # Number of tag accesses
system.cpu0.icache.tags.data_accesses       311219257                       # Number of data accesses
system.cpu0.icache.tags.repl_invalid                0                       # Number of initial replacements
system.cpu0.icache.tags.repl_valid_tag              0                       # Number of local replacements
system.cpu0.icache.tags.repl_valid_data             0                       # Number of global replacements
system.cpu0.dtb.walker.pwrStateResidencyTicks::UNDEFINED 1579820433498                       # Cumulative time (in ticks) in various power states
system.cpu0.interrupts.clk_domain.clock          5328                       # Clock period in ticks
system.cpu0.itb_walker_cache.pwrStateResidencyTicks::UNDEFINED 1579820433498                       # Cumulative time (in ticks) in various power states
system.cpu0.itb_walker_cache.blocked_cycles::no_mshrs            0                       # number of cycles access was blocked
system.cpu0.itb_walker_cache.blocked_cycles::no_targets            0                       # number of cycles access was blocked
system.cpu0.itb_walker_cache.blocked::no_mshrs            0                       # number of cycles access was blocked
system.cpu0.itb_walker_cache.blocked::no_targets            0                       # number of cycles access was blocked
system.cpu0.itb_walker_cache.avg_blocked_cycles::no_mshrs          nan                       # average number of cycles each access was blocked
system.cpu0.itb_walker_cache.avg_blocked_cycles::no_targets          nan                       # average number of cycles each access was blocked
system.cpu0.itb_walker_cache.replacements            0                       # number of replacements
system.cpu0.itb_walker_cache.tags.pwrStateResidencyTicks::UNDEFINED 1579820433498                       # Cumulative time (in ticks) in various power states
system.cpu0.itb_walker_cache.tags.tagsinuse            0                       # Cycle average of tags in use
system.cpu0.itb_walker_cache.tags.total_refs            0                       # Total number of references to valid blocks.
system.cpu0.itb_walker_cache.tags.sampled_refs            0                       # Sample count of references to valid blocks.
system.cpu0.itb_walker_cache.tags.avg_refs          nan                       # Average number of references to valid blocks.
system.cpu0.itb_walker_cache.tags.warmup_cycle            0                       # Cycle when the warmup percentage was hit.
system.cpu0.itb_walker_cache.tags.tag_accesses            0                       # Number of tag accesses
system.cpu0.itb_walker_cache.tags.data_accesses            0                       # Number of data accesses
system.cpu0.itb_walker_cache.tags.repl_invalid            0                       # Number of initial replacements
system.cpu0.itb_walker_cache.tags.repl_valid_tag            0                       # Number of local replacements
system.cpu0.itb_walker_cache.tags.repl_valid_data            0                       # Number of global replacements
system.cpu0.itb.walker.pwrStateResidencyTicks::UNDEFINED 1579820433498                       # Cumulative time (in ticks) in various power states
system.cpu0.dtb_walker_cache.pwrStateResidencyTicks::UNDEFINED 1579820433498                       # Cumulative time (in ticks) in various power states
system.cpu0.dtb_walker_cache.blocked_cycles::no_mshrs            0                       # number of cycles access was blocked
system.cpu0.dtb_walker_cache.blocked_cycles::no_targets            0                       # number of cycles access was blocked
system.cpu0.dtb_walker_cache.blocked::no_mshrs            0                       # number of cycles access was blocked
system.cpu0.dtb_walker_cache.blocked::no_targets            0                       # number of cycles access was blocked
system.cpu0.dtb_walker_cache.avg_blocked_cycles::no_mshrs          nan                       # average number of cycles each access was blocked
system.cpu0.dtb_walker_cache.avg_blocked_cycles::no_targets          nan                       # average number of cycles each access was blocked
system.cpu0.dtb_walker_cache.replacements            0                       # number of replacements
system.cpu0.dtb_walker_cache.tags.pwrStateResidencyTicks::UNDEFINED 1579820433498                       # Cumulative time (in ticks) in various power states
system.cpu0.dtb_walker_cache.tags.tagsinuse            0                       # Cycle average of tags in use
system.cpu0.dtb_walker_cache.tags.total_refs            0                       # Total number of references to valid blocks.
system.cpu0.dtb_walker_cache.tags.sampled_refs            0                       # Sample count of references to valid blocks.
system.cpu0.dtb_walker_cache.tags.avg_refs          nan                       # Average number of references to valid blocks.
system.cpu0.dtb_walker_cache.tags.warmup_cycle            0                       # Cycle when the warmup percentage was hit.
system.cpu0.dtb_walker_cache.tags.tag_accesses            0                       # Number of tag accesses
system.cpu0.dtb_walker_cache.tags.data_accesses            0                       # Number of data accesses
system.cpu0.dtb_walker_cache.tags.repl_invalid            0                       # Number of initial replacements
system.cpu0.dtb_walker_cache.tags.repl_valid_tag            0                       # Number of local replacements
system.cpu0.dtb_walker_cache.tags.repl_valid_data            0                       # Number of global replacements
system.cpu0.dcache.pwrStateResidencyTicks::UNDEFINED 1579820433498                       # Cumulative time (in ticks) in various power states
system.cpu0.dcache.demand_hits::.cpu0.data     16322542                       # number of demand (read+write) hits
system.cpu0.dcache.demand_hits::total        16322542                       # number of demand (read+write) hits
system.cpu0.dcache.overall_hits::.cpu0.data     16322542                       # number of overall hits
system.cpu0.dcache.overall_hits::total       16322542                       # number of overall hits
system.cpu0.dcache.demand_misses::.cpu0.data       347916                       # number of demand (read+write) misses
system.cpu0.dcache.demand_misses::total        347916                       # number of demand (read+write) misses
system.cpu0.dcache.overall_misses::.cpu0.data       347916                       # number of overall misses
system.cpu0.dcache.overall_misses::total       347916                       # number of overall misses
system.cpu0.dcache.demand_miss_latency::.cpu0.data  29518884900                       # number of demand (read+write) miss cycles
system.cpu0.dcache.demand_miss_latency::total  29518884900                       # number of demand (read+write) miss cycles
system.cpu0.dcache.overall_miss_latency::.cpu0.data  29518884900                       # number of overall miss cycles
system.cpu0.dcache.overall_miss_latency::total  29518884900                       # number of overall miss cycles
system.cpu0.dcache.demand_accesses::.cpu0.data     16670458                       # number of demand (read+write) accesses
system.cpu0.dcache.demand_accesses::total     16670458                       # number of demand (read+write) accesses
system.cpu0.dcache.overall_accesses::.cpu0.data     16670458                       # number of overall (read+write) accesses
system.cpu0.dcache.overall_accesses::total     16670458                       # number of overall (read+write) accesses
system.cpu0.dcache.demand_miss_rate::.cpu0.data     0.020870                       # miss rate for demand accesses
system.cpu0.dcache.demand_miss_rate::total     0.020870                       # miss rate for demand accesses
system.cpu0.dcache.overall_miss_rate::.cpu0.data     0.020870                       # miss rate for overall accesses
system.cpu0.dcache.overall_miss_rate::total     0.020870                       # miss rate for overall accesses
system.cpu0.dcache.demand_avg_miss_latency::.cpu0.data 84844.861691                       # average overall miss latency
system.cpu0.dcache.demand_avg_miss_latency::total 84844.861691                       # average overall miss latency
system.cpu0.dcache.overall_avg_miss_latency::.cpu0.data 84844.861691                       # average overall miss latency
system.cpu0.dcache.overall_avg_miss_latency::total 84844.861691                       # average overall miss latency
system.cpu0.dcache.blocked_cycles::no_mshrs            0                       # number of cycles access was blocked
system.cpu0.dcache.blocked_cycles::no_targets            0                       # number of cycles access was blocked
system.cpu0.dcache.blocked::no_mshrs                0                       # number of cycles access was blocked
system.cpu0.dcache.blocked::no_targets              0                       # number of cycles access was blocked
system.cpu0.dcache.avg_blocked_cycles::no_mshrs          nan                       # average number of cycles each access was blocked
system.cpu0.dcache.avg_blocked_cycles::no_targets          nan                       # average number of cycles each access was blocked
system.cpu0.dcache.writebacks::.writebacks          514                       # number of writebacks
system.cpu0.dcache.writebacks::total              514                       # number of writebacks
system.cpu0.dcache.demand_mshr_misses::.cpu0.data       347916                       # number of demand (read+write) MSHR misses
system.cpu0.dcache.demand_mshr_misses::total       347916                       # number of demand (read+write) MSHR misses
system.cpu0.dcache.overall_mshr_misses::.cpu0.data       347916                       # number of overall MSHR misses
system.cpu0.dcache.overall_mshr_misses::total       347916                       # number of overall MSHR misses
system.cpu0.dcache.demand_mshr_miss_latency::.cpu0.data  29287172844                       # number of demand (read+write) MSHR miss cycles
system.cpu0.dcache.demand_mshr_miss_latency::total  29287172844                       # number of demand (read+write) MSHR miss cycles
system.cpu0.dcache.overall_mshr_miss_latency::.cpu0.data  29287172844                       # number of overall MSHR miss cycles
system.cpu0.dcache.overall_mshr_miss_latency::total  29287172844                       # number of overall MSHR miss cycles
system.cpu0.dcache.demand_mshr_miss_rate::.cpu0.data     0.020870                       # mshr miss rate for demand accesses
system.cpu0.dcache.demand_mshr_miss_rate::total     0.020870                       # mshr miss rate for demand accesses
system.cpu0.dcache.overall_mshr_miss_rate::.cpu0.data     0.020870                       # mshr miss rate for overall accesses
system.cpu0.dcache.overall_mshr_miss_rate::total     0.020870                       # mshr miss rate for overall accesses
system.cpu0.dcache.demand_avg_mshr_miss_latency::.cpu0.data 84178.861691                       # average overall mshr miss latency
system.cpu0.dcache.demand_avg_mshr_miss_latency::total 84178.861691                       # average overall mshr miss latency
system.cpu0.dcache.overall_avg_mshr_miss_latency::.cpu0.data 84178.861691                       # average overall mshr miss latency
system.cpu0.dcache.overall_avg_mshr_miss_latency::total 84178.861691                       # average overall mshr miss latency
system.cpu0.dcache.replacements                347908                       # number of replacements
system.cpu0.dcache.ReadReq_hits::.cpu0.data     10765403                       # number of ReadReq hits
system.cpu0.dcache.ReadReq_hits::total       10765403                       # number of ReadReq hits
system.cpu0.dcache.ReadReq_misses::.cpu0.data       347660                       # number of ReadReq misses
system.cpu0.dcache.ReadReq_misses::total       347660                       # number of ReadReq misses
system.cpu0.dcache.ReadReq_miss_latency::.cpu0.data  29507495634                       # number of ReadReq miss cycles
system.cpu0.dcache.ReadReq_miss_latency::total  29507495634                       # number of ReadReq miss cycles
system.cpu0.dcache.ReadReq_accesses::.cpu0.data     11113063                       # number of ReadReq accesses(hits+misses)
system.cpu0.dcache.ReadReq_accesses::total     11113063                       # number of ReadReq accesses(hits+misses)
system.cpu0.dcache.ReadReq_miss_rate::.cpu0.data     0.031284                       # miss rate for ReadReq accesses
system.cpu0.dcache.ReadReq_miss_rate::total     0.031284                       # miss rate for ReadReq accesses
system.cpu0.dcache.ReadReq_avg_miss_latency::.cpu0.data 84874.577559                       # average ReadReq miss latency
system.cpu0.dcache.ReadReq_avg_miss_latency::total 84874.577559                       # average ReadReq miss latency
system.cpu0.dcache.ReadReq_mshr_misses::.cpu0.data       347660                       # number of ReadReq MSHR misses
system.cpu0.dcache.ReadReq_mshr_misses::total       347660                       # number of ReadReq MSHR misses
system.cpu0.dcache.ReadReq_mshr_miss_latency::.cpu0.data  29275954074                       # number of ReadReq MSHR miss cycles
system.cpu0.dcache.ReadReq_mshr_miss_latency::total  29275954074                       # number of ReadReq MSHR miss cycles
system.cpu0.dcache.ReadReq_mshr_miss_rate::.cpu0.data     0.031284                       # mshr miss rate for ReadReq accesses
system.cpu0.dcache.ReadReq_mshr_miss_rate::total     0.031284                       # mshr miss rate for ReadReq accesses
system.cpu0.dcache.ReadReq_avg_mshr_miss_latency::.cpu0.data 84208.577559                       # average ReadReq mshr miss latency
system.cpu0.dcache.ReadReq_avg_mshr_miss_latency::total 84208.577559                       # average ReadReq mshr miss latency
system.cpu0.dcache.WriteReq_hits::.cpu0.data      5557139                       # number of WriteReq hits
system.cpu0.dcache.WriteReq_hits::total       5557139                       # number of WriteReq hits
system.cpu0.dcache.WriteReq_misses::.cpu0.data          256                       # number of WriteReq misses
system.cpu0.dcache.WriteReq_misses::total          256                       # number of WriteReq misses
system.cpu0.dcache.WriteReq_miss_latency::.cpu0.data     11389266                       # number of WriteReq miss cycles
system.cpu0.dcache.WriteReq_miss_latency::total     11389266                       # number of WriteReq miss cycles
system.cpu0.dcache.WriteReq_accesses::.cpu0.data      5557395                       # number of WriteReq accesses(hits+misses)
system.cpu0.dcache.WriteReq_accesses::total      5557395                       # number of WriteReq accesses(hits+misses)
system.cpu0.dcache.WriteReq_miss_rate::.cpu0.data     0.000046                       # miss rate for WriteReq accesses
system.cpu0.dcache.WriteReq_miss_rate::total     0.000046                       # miss rate for WriteReq accesses
system.cpu0.dcache.WriteReq_avg_miss_latency::.cpu0.data 44489.320312                       # average WriteReq miss latency
system.cpu0.dcache.WriteReq_avg_miss_latency::total 44489.320312                       # average WriteReq miss latency
system.cpu0.dcache.WriteReq_mshr_misses::.cpu0.data          256                       # number of WriteReq MSHR misses
system.cpu0.dcache.WriteReq_mshr_misses::total          256                       # number of WriteReq MSHR misses
system.cpu0.dcache.WriteReq_mshr_miss_latency::.cpu0.data     11218770                       # number of WriteReq MSHR miss cycles
system.cpu0.dcache.WriteReq_mshr_miss_latency::total     11218770                       # number of WriteReq MSHR miss cycles
system.cpu0.dcache.WriteReq_mshr_miss_rate::.cpu0.data     0.000046                       # mshr miss rate for WriteReq accesses
system.cpu0.dcache.WriteReq_mshr_miss_rate::total     0.000046                       # mshr miss rate for WriteReq accesses
system.cpu0.dcache.WriteReq_avg_mshr_miss_latency::.cpu0.data 43823.320312                       # average WriteReq mshr miss latency
system.cpu0.dcache.WriteReq_avg_mshr_miss_latency::total 43823.320312                       # average WriteReq mshr miss latency
system.cpu0.dcache.tags.pwrStateResidencyTicks::UNDEFINED 1579820433498                       # Cumulative time (in ticks) in various power states
system.cpu0.dcache.tags.tagsinuse            7.999996                       # Cycle average of tags in use
system.cpu0.dcache.tags.total_refs           16670458                       # Total number of references to valid blocks.
system.cpu0.dcache.tags.sampled_refs           347916                       # Sample count of references to valid blocks.
system.cpu0.dcache.tags.avg_refs            47.915181                       # Average number of references to valid blocks.
system.cpu0.dcache.tags.warmup_cycle           165168                       # Cycle when the warmup percentage was hit.
system.cpu0.dcache.tags.occ_blocks::.cpu0.data     7.999996                       # Average occupied blocks per requestor
system.cpu0.dcache.tags.occ_percent::.cpu0.data     1.000000                       # Average percentage of cache occupancy
system.cpu0.dcache.tags.occ_percent::total     1.000000                       # Average percentage of cache occupancy
system.cpu0.dcache.tags.occ_task_id_blocks::1024            8                       # Occupied blocks per task id
system.cpu0.dcache.tags.age_task_id_blocks_1024::4            8                       # Occupied blocks per task id
system.cpu0.dcache.tags.occ_task_id_percent::1024            1                       # Percentage of cache occupancy per task id
system.cpu0.dcache.tags.tag_accesses        133711580                       # Number of tag accesses
system.cpu0.dcache.tags.data_accesses       133711580                       # Number of data accesses
system.cpu0.dcache.tags.repl_invalid                0                       # Number of initial replacements
system.cpu0.dcache.tags.repl_valid_tag              0                       # Number of local replacements
system.cpu0.dcache.tags.repl_valid_data             0                       # Number of global replacements
system.cpu1.numPwrStateTransitions                  1                       # Number of power state transitions
system.cpu1.pwrStateResidencyTicks::ON   1579820433498                       # Cumulative time (in ticks) in various power states
system.cpu1.icache.pwrStateResidencyTicks::UNDEFINED 1579820433498                       # Cumulative time (in ticks) in various power states
system.cpu1.icache.demand_hits::.cpu1.inst   1364909746                       # number of demand (read+write) hits
system.cpu1.icache.demand_hits::total      1364909746                       # number of demand (read+write) hits
system.cpu1.icache.overall_hits::.cpu1.inst   1364909746                       # number of overall hits
system.cpu1.icache.overall_hits::total     1364909746                       # number of overall hits
system.cpu1.icache.demand_misses::.cpu1.inst         1983                       # number of demand (read+write) misses
system.cpu1.icache.demand_misses::total          1983                       # number of demand (read+write) misses
system.cpu1.icache.overall_misses::.cpu1.inst         1983                       # number of overall misses
system.cpu1.icache.overall_misses::total         1983                       # number of overall misses
system.cpu1.icache.demand_miss_latency::.cpu1.inst    154728450                       # number of demand (read+write) miss cycles
system.cpu1.icache.demand_miss_latency::total    154728450                       # number of demand (read+write) miss cycles
system.cpu1.icache.overall_miss_latency::.cpu1.inst    154728450                       # number of overall miss cycles
system.cpu1.icache.overall_miss_latency::total    154728450                       # number of overall miss cycles
system.cpu1.icache.demand_accesses::.cpu1.inst   1364911729                       # number of demand (read+write) accesses
system.cpu1.icache.demand_accesses::total   1364911729                       # number of demand (read+write) accesses
system.cpu1.icache.overall_accesses::.cpu1.inst   1364911729                       # number of overall (read+write) accesses
system.cpu1.icache.overall_accesses::total   1364911729                       # number of overall (read+write) accesses
system.cpu1.icache.demand_miss_rate::.cpu1.inst     0.000001                       # miss rate for demand accesses
system.cpu1.icache.demand_miss_rate::total     0.000001                       # miss rate for demand accesses
system.cpu1.icache.overall_miss_rate::.cpu1.inst     0.000001                       # miss rate for overall accesses
system.cpu1.icache.overall_miss_rate::total     0.000001                       # miss rate for overall accesses
system.cpu1.icache.demand_avg_miss_latency::.cpu1.inst 78027.458396                       # average overall miss latency
system.cpu1.icache.demand_avg_miss_latency::total 78027.458396                       # average overall miss latency
system.cpu1.icache.overall_avg_miss_latency::.cpu1.inst 78027.458396                       # average overall miss latency
system.cpu1.icache.overall_avg_miss_latency::total 78027.458396                       # average overall miss latency
system.cpu1.icache.blocked_cycles::no_mshrs            0                       # number of cycles access was blocked
system.cpu1.icache.blocked_cycles::no_targets            0                       # number of cycles access was blocked
system.cpu1.icache.blocked::no_mshrs                0                       # number of cycles access was blocked
system.cpu1.icache.blocked::no_targets              0                       # number of cycles access was blocked
system.cpu1.icache.avg_blocked_cycles::no_mshrs          nan                       # average number of cycles each access was blocked
system.cpu1.icache.avg_blocked_cycles::no_targets          nan                       # average number of cycles each access was blocked
system.cpu1.icache.writebacks::.writebacks         1471                       # number of writebacks
system.cpu1.icache.writebacks::total             1471                       # number of writebacks
system.cpu1.icache.demand_mshr_misses::.cpu1.inst         1983                       # number of demand (read+write) MSHR misses
system.cpu1.icache.demand_mshr_misses::total         1983                       # number of demand (read+write) MSHR misses
system.cpu1.icache.overall_mshr_misses::.cpu1.inst         1983                       # number of overall MSHR misses
system.cpu1.icache.overall_mshr_misses::total         1983                       # number of overall MSHR misses
system.cpu1.icache.demand_mshr_miss_latency::.cpu1.inst    153407772                       # number of demand (read+write) MSHR miss cycles
system.cpu1.icache.demand_mshr_miss_latency::total    153407772                       # number of demand (read+write) MSHR miss cycles
system.cpu1.icache.overall_mshr_miss_latency::.cpu1.inst    153407772                       # number of overall MSHR miss cycles
system.cpu1.icache.overall_mshr_miss_latency::total    153407772                       # number of overall MSHR miss cycles
system.cpu1.icache.demand_mshr_miss_rate::.cpu1.inst     0.000001                       # mshr miss rate for demand accesses
system.cpu1.icache.demand_mshr_miss_rate::total     0.000001                       # mshr miss rate for demand accesses
system.cpu1.icache.overall_mshr_miss_rate::.cpu1.inst     0.000001                       # mshr miss rate for overall accesses
system.cpu1.icache.overall_mshr_miss_rate::total     0.000001                       # mshr miss rate for overall accesses
system.cpu1.icache.demand_avg_mshr_miss_latency::.cpu1.inst 77361.458396                       # average overall mshr miss latency
system.cpu1.icache.demand_avg_mshr_miss_latency::total 77361.458396                       # average overall mshr miss latency
system.cpu1.icache.overall_avg_mshr_miss_latency::.cpu1.inst 77361.458396                       # average overall mshr miss latency
system.cpu1.icache.overall_avg_mshr_miss_latency::total 77361.458396                       # average overall mshr miss latency
system.cpu1.icache.replacements                  1471                       # number of replacements
system.cpu1.icache.ReadReq_hits::.cpu1.inst   1364909746                       # number of ReadReq hits
system.cpu1.icache.ReadReq_hits::total     1364909746                       # number of ReadReq hits
system.cpu1.icache.ReadReq_misses::.cpu1.inst         1983                       # number of ReadReq misses
system.cpu1.icache.ReadReq_misses::total         1983                       # number of ReadReq misses
system.cpu1.icache.ReadReq_miss_latency::.cpu1.inst    154728450                       # number of ReadReq miss cycles
system.cpu1.icache.ReadReq_miss_latency::total    154728450                       # number of ReadReq miss cycles
system.cpu1.icache.ReadReq_accesses::.cpu1.inst   1364911729                       # number of ReadReq accesses(hits+misses)
system.cpu1.icache.ReadReq_accesses::total   1364911729                       # number of ReadReq accesses(hits+misses)
system.cpu1.icache.ReadReq_miss_rate::.cpu1.inst     0.000001                       # miss rate for ReadReq accesses
system.cpu1.icache.ReadReq_miss_rate::total     0.000001                       # miss rate for ReadReq accesses
system.cpu1.icache.ReadReq_avg_miss_latency::.cpu1.inst 78027.458396                       # average ReadReq miss latency
system.cpu1.icache.ReadReq_avg_miss_latency::total 78027.458396                       # average ReadReq miss latency
system.cpu1.icache.ReadReq_mshr_misses::.cpu1.inst         1983                       # number of ReadReq MSHR misses
system.cpu1.icache.ReadReq_mshr_misses::total         1983                       # number of ReadReq MSHR misses
system.cpu1.icache.ReadReq_mshr_miss_latency::.cpu1.inst    153407772                       # number of ReadReq MSHR miss cycles
system.cpu1.icache.ReadReq_mshr_miss_latency::total    153407772                       # number of ReadReq MSHR miss cycles
system.cpu1.icache.ReadReq_mshr_miss_rate::.cpu1.inst     0.000001                       # mshr miss rate for ReadReq accesses
system.cpu1.icache.ReadReq_mshr_miss_rate::total     0.000001                       # mshr miss rate for ReadReq accesses
system.cpu1.icache.ReadReq_avg_mshr_miss_latency::.cpu1.inst 77361.458396                       # average ReadReq mshr miss latency
system.cpu1.icache.ReadReq_avg_mshr_miss_latency::total 77361.458396                       # average ReadReq mshr miss latency
system.cpu1.icache.tags.pwrStateResidencyTicks::UNDEFINED 1579820433498                       # Cumulative time (in ticks) in various power states
system.cpu1.icache.tags.tagsinuse          511.983090                       # Cycle average of tags in use
system.cpu1.icache.tags.total_refs         1364911729                       # Total number of references to valid blocks.
system.cpu1.icache.tags.sampled_refs             1983                       # Sample count of references to valid blocks.
system.cpu1.icache.tags.avg_refs         688306.469491                       # Average number of references to valid blocks.
system.cpu1.icache.tags.warmup_cycle            88245                       # Cycle when the warmup percentage was hit.
system.cpu1.icache.tags.occ_blocks::.cpu1.inst   511.983090                       # Average occupied blocks per requestor
system.cpu1.icache.tags.occ_percent::.cpu1.inst     0.999967                       # Average percentage of cache occupancy
system.cpu1.icache.tags.occ_percent::total     0.999967                       # Average percentage of cache occupancy
system.cpu1.icache.tags.occ_task_id_blocks::1024          512                       # Occupied blocks per task id
system.cpu1.icache.tags.age_task_id_blocks_1024::4          512                       # Occupied blocks per task id
system.cpu1.icache.tags.occ_task_id_percent::1024            1                       # Percentage of cache occupancy per task id
system.cpu1.icache.tags.tag_accesses      10919295815                       # Number of tag accesses
system.cpu1.icache.tags.data_accesses     10919295815                       # Number of data accesses
system.cpu1.icache.tags.repl_invalid                0                       # Number of initial replacements
system.cpu1.icache.tags.repl_valid_tag              0                       # Number of local replacements
system.cpu1.icache.tags.repl_valid_data             0                       # Number of global replacements
system.cpu1.dtb.walker.pwrStateResidencyTicks::UNDEFINED 1579820433498                       # Cumulative time (in ticks) in various power states
system.cpu1.interrupts.clk_domain.clock          5328                       # Clock period in ticks
system.cpu1.itb_walker_cache.pwrStateResidencyTicks::UNDEFINED 1579820433498                       # Cumulative time (in ticks) in various power states
system.cpu1.itb_walker_cache.blocked_cycles::no_mshrs            0                       # number of cycles access was blocked
system.cpu1.itb_walker_cache.blocked_cycles::no_targets            0                       # number of cycles access was blocked
system.cpu1.itb_walker_cache.blocked::no_mshrs            0                       # number of cycles access was blocked
system.cpu1.itb_walker_cache.blocked::no_targets            0                       # number of cycles access was blocked
system.cpu1.itb_walker_cache.avg_blocked_cycles::no_mshrs          nan                       # average number of cycles each access was blocked
system.cpu1.itb_walker_cache.avg_blocked_cycles::no_targets          nan                       # average number of cycles each access was blocked
system.cpu1.itb_walker_cache.replacements            0                       # number of replacements
system.cpu1.itb_walker_cache.tags.pwrStateResidencyTicks::UNDEFINED 1579820433498                       # Cumulative time (in ticks) in various power states
system.cpu1.itb_walker_cache.tags.tagsinuse            0                       # Cycle average of tags in use
system.cpu1.itb_walker_cache.tags.total_refs            0                       # Total number of references to valid blocks.
system.cpu1.itb_walker_cache.tags.sampled_refs            0                       # Sample count of references to valid blocks.
system.cpu1.itb_walker_cache.tags.avg_refs          nan                       # Average number of references to valid blocks.
system.cpu1.itb_walker_cache.tags.warmup_cycle            0                       # Cycle when the warmup percentage was hit.
system.cpu1.itb_walker_cache.tags.tag_accesses            0                       # Number of tag accesses
system.cpu1.itb_walker_cache.tags.data_accesses            0                       # Number of data accesses
system.cpu1.itb_walker_cache.tags.repl_invalid            0                       # Number of initial replacements
system.cpu1.itb_walker_cache.tags.repl_valid_tag            0                       # Number of local replacements
system.cpu1.itb_walker_cache.tags.repl_valid_data            0                       # Number of global replacements
system.cpu1.itb.walker.pwrStateResidencyTicks::UNDEFINED 1579820433498                       # Cumulative time (in ticks) in various power states
system.cpu1.dtb_walker_cache.pwrStateResidencyTicks::UNDEFINED 1579820433498                       # Cumulative time (in ticks) in various power states
system.cpu1.dtb_walker_cache.blocked_cycles::no_mshrs            0                       # number of cycles access was blocked
system.cpu1.dtb_walker_cache.blocked_cycles::no_targets            0                       # number of cycles access was blocked
system.cpu1.dtb_walker_cache.blocked::no_mshrs            0                       # number of cycles access was blocked
system.cpu1.dtb_walker_cache.blocked::no_targets            0                       # number of cycles access was blocked
system.cpu1.dtb_walker_cache.avg_blocked_cycles::no_mshrs          nan                       # average number of cycles each access was blocked
system.cpu1.dtb_walker_cache.avg_blocked_cycles::no_targets          nan                       # average number of cycles each access was blocked
system.cpu1.dtb_walker_cache.replacements            0                       # number of replacements
system.cpu1.dtb_walker_cache.tags.pwrStateResidencyTicks::UNDEFINED 1579820433498                       # Cumulative time (in ticks) in various power states
system.cpu1.dtb_walker_cache.tags.tagsinuse            0                       # Cycle average of tags in use
system.cpu1.dtb_walker_cache.tags.total_refs            0                       # Total number of references to valid blocks.
system.cpu1.dtb_walker_cache.tags.sampled_refs            0                       # Sample count of references to valid blocks.
system.cpu1.dtb_walker_cache.tags.avg_refs          nan                       # Average number of references to valid blocks.
system.cpu1.dtb_walker_cache.tags.warmup_cycle            0                       # Cycle when the warmup percentage was hit.
system.cpu1.dtb_walker_cache.tags.tag_accesses            0                       # Number of tag accesses
system.cpu1.dtb_walker_cache.tags.data_accesses            0                       # Number of data accesses
system.cpu1.dtb_walker_cache.tags.repl_invalid            0                       # Number of initial replacements
system.cpu1.dtb_walker_cache.tags.repl_valid_tag            0                       # Number of local replacements
system.cpu1.dtb_walker_cache.tags.repl_valid_data            0                       # Number of global replacements
system.cpu1.dcache.pwrStateResidencyTicks::UNDEFINED 1579820433498                       # Cumulative time (in ticks) in various power states
system.cpu1.dcache.demand_hits::.cpu1.data    419403012                       # number of demand (read+write) hits
system.cpu1.dcache.demand_hits::total       419403012                       # number of demand (read+write) hits
system.cpu1.dcache.overall_hits::.cpu1.data    419403012                       # number of overall hits
system.cpu1.dcache.overall_hits::total      419403012                       # number of overall hits
system.cpu1.dcache.demand_misses::.cpu1.data     23475664                       # number of demand (read+write) misses
system.cpu1.dcache.demand_misses::total      23475664                       # number of demand (read+write) misses
system.cpu1.dcache.overall_misses::.cpu1.data     23475664                       # number of overall misses
system.cpu1.dcache.overall_misses::total     23475664                       # number of overall misses
system.cpu1.dcache.demand_miss_latency::.cpu1.data 391391740143                       # number of demand (read+write) miss cycles
system.cpu1.dcache.demand_miss_latency::total 391391740143                       # number of demand (read+write) miss cycles
system.cpu1.dcache.overall_miss_latency::.cpu1.data 391391740143                       # number of overall miss cycles
system.cpu1.dcache.overall_miss_latency::total 391391740143                       # number of overall miss cycles
system.cpu1.dcache.demand_accesses::.cpu1.data    442878676                       # number of demand (read+write) accesses
system.cpu1.dcache.demand_accesses::total    442878676                       # number of demand (read+write) accesses
system.cpu1.dcache.overall_accesses::.cpu1.data    442878676                       # number of overall (read+write) accesses
system.cpu1.dcache.overall_accesses::total    442878676                       # number of overall (read+write) accesses
system.cpu1.dcache.demand_miss_rate::.cpu1.data     0.053007                       # miss rate for demand accesses
system.cpu1.dcache.demand_miss_rate::total     0.053007                       # miss rate for demand accesses
system.cpu1.dcache.overall_miss_rate::.cpu1.data     0.053007                       # miss rate for overall accesses
system.cpu1.dcache.overall_miss_rate::total     0.053007                       # miss rate for overall accesses
system.cpu1.dcache.demand_avg_miss_latency::.cpu1.data 16672.233004                       # average overall miss latency
system.cpu1.dcache.demand_avg_miss_latency::total 16672.233004                       # average overall miss latency
system.cpu1.dcache.overall_avg_miss_latency::.cpu1.data 16672.233004                       # average overall miss latency
system.cpu1.dcache.overall_avg_miss_latency::total 16672.233004                       # average overall miss latency
system.cpu1.dcache.blocked_cycles::no_mshrs            0                       # number of cycles access was blocked
system.cpu1.dcache.blocked_cycles::no_targets            0                       # number of cycles access was blocked
system.cpu1.dcache.blocked::no_mshrs                0                       # number of cycles access was blocked
system.cpu1.dcache.blocked::no_targets              0                       # number of cycles access was blocked
system.cpu1.dcache.avg_blocked_cycles::no_mshrs          nan                       # average number of cycles each access was blocked
system.cpu1.dcache.avg_blocked_cycles::no_targets          nan                       # average number of cycles each access was blocked
system.cpu1.dcache.writebacks::.writebacks     17565947                       # number of writebacks
system.cpu1.dcache.writebacks::total         17565947                       # number of writebacks
system.cpu1.dcache.demand_mshr_misses::.cpu1.data     23475664                       # number of demand (read+write) MSHR misses
system.cpu1.dcache.demand_mshr_misses::total     23475664                       # number of demand (read+write) MSHR misses
system.cpu1.dcache.overall_mshr_misses::.cpu1.data     23475664                       # number of overall MSHR misses
system.cpu1.dcache.overall_mshr_misses::total     23475664                       # number of overall MSHR misses
system.cpu1.dcache.demand_mshr_miss_latency::.cpu1.data 375756947919                       # number of demand (read+write) MSHR miss cycles
system.cpu1.dcache.demand_mshr_miss_latency::total 375756947919                       # number of demand (read+write) MSHR miss cycles
system.cpu1.dcache.overall_mshr_miss_latency::.cpu1.data 375756947919                       # number of overall MSHR miss cycles
system.cpu1.dcache.overall_mshr_miss_latency::total 375756947919                       # number of overall MSHR miss cycles
system.cpu1.dcache.demand_mshr_miss_rate::.cpu1.data     0.053007                       # mshr miss rate for demand accesses
system.cpu1.dcache.demand_mshr_miss_rate::total     0.053007                       # mshr miss rate for demand accesses
system.cpu1.dcache.overall_mshr_miss_rate::.cpu1.data     0.053007                       # mshr miss rate for overall accesses
system.cpu1.dcache.overall_mshr_miss_rate::total     0.053007                       # mshr miss rate for overall accesses
system.cpu1.dcache.demand_avg_mshr_miss_latency::.cpu1.data 16006.233004                       # average overall mshr miss latency
system.cpu1.dcache.demand_avg_mshr_miss_latency::total 16006.233004                       # average overall mshr miss latency
system.cpu1.dcache.overall_avg_mshr_miss_latency::.cpu1.data 16006.233004                       # average overall mshr miss latency
system.cpu1.dcache.overall_avg_mshr_miss_latency::total 16006.233004                       # average overall mshr miss latency
system.cpu1.dcache.replacements              23475656                       # number of replacements
system.cpu1.dcache.ReadReq_hits::.cpu1.data    326712892                       # number of ReadReq hits
system.cpu1.dcache.ReadReq_hits::total      326712892                       # number of ReadReq hits
system.cpu1.dcache.ReadReq_misses::.cpu1.data     17107064                       # number of ReadReq misses
system.cpu1.dcache.ReadReq_misses::total     17107064                       # number of ReadReq misses
system.cpu1.dcache.ReadReq_miss_latency::.cpu1.data 187129579770                       # number of ReadReq miss cycles
system.cpu1.dcache.ReadReq_miss_latency::total 187129579770                       # number of ReadReq miss cycles
system.cpu1.dcache.ReadReq_accesses::.cpu1.data    343819956                       # number of ReadReq accesses(hits+misses)
system.cpu1.dcache.ReadReq_accesses::total    343819956                       # number of ReadReq accesses(hits+misses)
system.cpu1.dcache.ReadReq_miss_rate::.cpu1.data     0.049756                       # miss rate for ReadReq accesses
system.cpu1.dcache.ReadReq_miss_rate::total     0.049756                       # miss rate for ReadReq accesses
system.cpu1.dcache.ReadReq_avg_miss_latency::.cpu1.data 10938.731495                       # average ReadReq miss latency
system.cpu1.dcache.ReadReq_avg_miss_latency::total 10938.731495                       # average ReadReq miss latency
system.cpu1.dcache.ReadReq_mshr_misses::.cpu1.data     17107064                       # number of ReadReq MSHR misses
system.cpu1.dcache.ReadReq_mshr_misses::total     17107064                       # number of ReadReq MSHR misses
system.cpu1.dcache.ReadReq_mshr_miss_latency::.cpu1.data 175736275146                       # number of ReadReq MSHR miss cycles
system.cpu1.dcache.ReadReq_mshr_miss_latency::total 175736275146                       # number of ReadReq MSHR miss cycles
system.cpu1.dcache.ReadReq_mshr_miss_rate::.cpu1.data     0.049756                       # mshr miss rate for ReadReq accesses
system.cpu1.dcache.ReadReq_mshr_miss_rate::total     0.049756                       # mshr miss rate for ReadReq accesses
system.cpu1.dcache.ReadReq_avg_mshr_miss_latency::.cpu1.data 10272.731495                       # average ReadReq mshr miss latency
system.cpu1.dcache.ReadReq_avg_mshr_miss_latency::total 10272.731495                       # average ReadReq mshr miss latency
system.cpu1.dcache.WriteReq_hits::.cpu1.data     92690120                       # number of WriteReq hits
system.cpu1.dcache.WriteReq_hits::total      92690120                       # number of WriteReq hits
system.cpu1.dcache.WriteReq_misses::.cpu1.data      6368600                       # number of WriteReq misses
system.cpu1.dcache.WriteReq_misses::total      6368600                       # number of WriteReq misses
[...]
system.mem_ctrls.wrQLenPdf::114                     0                       # What write queue length does an incoming req see
system.mem_ctrls.wrQLenPdf::115                     0                       # What write queue length does an incoming req see
system.mem_ctrls.wrQLenPdf::116                     0                       # What write queue length does an incoming req see
system.mem_ctrls.wrQLenPdf::117                     0                       # What write queue length does an incoming req see
system.mem_ctrls.wrQLenPdf::118                     0                       # What write queue length does an incoming req see
system.mem_ctrls.wrQLenPdf::119                     0                       # What write queue length does an incoming req see
system.mem_ctrls.wrQLenPdf::120                     0                       # What write queue length does an incoming req see
system.mem_ctrls.wrQLenPdf::121                     0                       # What write queue length does an incoming req see
system.mem_ctrls.wrQLenPdf::122                     0                       # What write queue length does an incoming req see
system.mem_ctrls.wrQLenPdf::123                     0                       # What write queue length does an incoming req see
system.mem_ctrls.wrQLenPdf::124                     0                       # What write queue length does an incoming req see
system.mem_ctrls.wrQLenPdf::125                     0                       # What write queue length does an incoming req see
system.mem_ctrls.wrQLenPdf::126                     0                       # What write queue length does an incoming req see
system.mem_ctrls.wrQLenPdf::127                     0                       # What write queue length does an incoming req see
system.mem_ctrls.bytesPerActivate::samples      3950304                       # Bytes accessed per row activation
system.mem_ctrls.bytesPerActivate::mean            64                       # Bytes accessed per row activation
system.mem_ctrls.bytesPerActivate::gmean    64.000000                       # Bytes accessed per row activation
system.mem_ctrls.bytesPerActivate::64-71      3950304    100.00%    100.00% # Bytes accessed per row activation
system.mem_ctrls.bytesPerActivate::total      3950304                       # Bytes accessed per row activation
system.mem_ctrls.rdPerTurnAround::samples        96703                       # Reads before turning the bus around for writes
system.mem_ctrls.rdPerTurnAround::mean      24.265452                       # Reads before turning the bus around for writes
system.mem_ctrls.rdPerTurnAround::gmean     17.804596                       # Reads before turning the bus around for writes
system.mem_ctrls.rdPerTurnAround::stdev    856.417081                       # Reads before turning the bus around for writes
system.mem_ctrls.rdPerTurnAround::0-8191        96694     99.99%     99.99% # Reads before turning the bus around for writes
system.mem_ctrls.rdPerTurnAround::8192-16383            5      0.01%    100.00% # Reads before turning the bus around for writes
system.mem_ctrls.rdPerTurnAround::16384-24575            3      0.00%    100.00% # Reads before turning the bus around for writes
system.mem_ctrls.rdPerTurnAround::262144-270335            1      0.00%    100.00% # Reads before turning the bus around for writes
system.mem_ctrls.rdPerTurnAround::total         96703                       # Reads before turning the bus around for writes
system.mem_ctrls.wrPerTurnAround::samples        96703                       # Writes before turning the bus around for reads
system.mem_ctrls.wrPerTurnAround::mean      16.584367                       # Writes before turning the bus around for reads
system.mem_ctrls.wrPerTurnAround::gmean     16.570614                       # Writes before turning the bus around for reads
system.mem_ctrls.wrPerTurnAround::stdev      0.681871                       # Writes before turning the bus around for reads
system.mem_ctrls.wrPerTurnAround::16            50922     52.66%     52.66% # Writes before turning the bus around for reads
system.mem_ctrls.wrPerTurnAround::17            35060     36.26%     88.91% # Writes before turning the bus around for reads
system.mem_ctrls.wrPerTurnAround::18            10713     11.08%     99.99% # Writes before turning the bus around for reads
system.mem_ctrls.wrPerTurnAround::19                8      0.01%    100.00% # Writes before turning the bus around for reads
system.mem_ctrls.wrPerTurnAround::total         96703                       # Writes before turning the bus around for reads
system.mem_ctrls.bytesReadDRAM              150178944                       # Total number of bytes read from DRAM
system.mem_ctrls.bytesReadWrQ                     768                       # Total number of bytes read from write queue
system.mem_ctrls.bytesWritten               102640512                       # Total number of bytes written to DRAM
system.mem_ctrls.bytesReadSys               150179712                       # Total read bytes from the system interface side
system.mem_ctrls.bytesWrittenSys            102643776                       # Total written bytes from the system interface side
system.mem_ctrls.avgRdBW                        95.06                       # Average DRAM read bandwidth in MiByte/s
system.mem_ctrls.avgWrBW                        64.97                       # Average achieved write bandwidth in MiByte/s
system.mem_ctrls.avgRdBWSys                     95.06                       # Average system read bandwidth in MiByte/s
system.mem_ctrls.avgWrBWSys                     64.97                       # Average system write bandwidth in MiByte/s
system.mem_ctrls.peakBW                      19207.00                       # Theoretical peak bandwidth in MiByte/s
system.mem_ctrls.busUtil                         0.83                       # Data bus utilization in percentage
system.mem_ctrls.busUtilRead                     0.49                       # Data bus utilization in percentage for reads
system.mem_ctrls.busUtilWrite                    0.34                       # Data bus utilization in percentage for writes
system.mem_ctrls.totGap                  1579808319291                       # Total gap between requests
system.mem_ctrls.avgGap                     399914.32                       # Average gap between requests
system.mem_ctrls.masterReadBytes::.cpu0.inst        28736                       # Per-master bytes read from memory
system.mem_ctrls.masterReadBytes::.cpu0.data     22238464                       # Per-master bytes read from memory
system.mem_ctrls.masterReadBytes::.cpu1.inst       116160                       # Per-master bytes read from memory
system.mem_ctrls.masterReadBytes::.cpu1.data    127795584                       # Per-master bytes read from memory
system.mem_ctrls.masterWriteBytes::.writebacks    102640512                       # Per-master bytes write to memory
system.mem_ctrls.masterReadRate::.cpu0.inst 18189.408992750807                       # Per-master bytes read from memory rate (Bytes/sec)
system.mem_ctrls.masterReadRate::.cpu0.data 14076577.013730689883                       # Per-master bytes read from memory rate (Bytes/sec)
system.mem_ctrls.masterReadRate::.cpu1.inst 73527.343701208723                       # Per-master bytes read from memory rate (Bytes/sec)
system.mem_ctrls.masterReadRate::.cpu1.data 80892474.416879221797                       # Per-master bytes read from memory rate (Bytes/sec)
system.mem_ctrls.masterWriteRate::.writebacks 64969733.156784079969                       # Per-master bytes write to memory rate (Bytes/sec)
system.mem_ctrls.masterReadAccesses::.cpu0.inst          449                       # Per-master read serviced memory accesses
system.mem_ctrls.masterReadAccesses::.cpu0.data       347476                       # Per-master read serviced memory accesses
system.mem_ctrls.masterReadAccesses::.cpu1.inst         1815                       # Per-master read serviced memory accesses
system.mem_ctrls.masterReadAccesses::.cpu1.data      1996818                       # Per-master read serviced memory accesses
system.mem_ctrls.masterWriteAccesses::.writebacks      1603809                       # Per-master write serviced memory accesses
system.mem_ctrls.masterReadTotalLat::.cpu0.inst     16457473                       # Per-master read total memory access latency
system.mem_ctrls.masterReadTotalLat::.cpu0.data  13014516138                       # Per-master read total memory access latency
system.mem_ctrls.masterReadTotalLat::.cpu1.inst     66460640                       # Per-master read total memory access latency
system.mem_ctrls.masterReadTotalLat::.cpu1.data  77278904479                       # Per-master read total memory access latency
system.mem_ctrls.masterWriteTotalLat::.writebacks 86328173610769                       # Per-master write total memory access latency
system.mem_ctrls.masterReadAvgLat::.cpu0.inst     36653.61                       # Per-master read average memory access latency
system.mem_ctrls.masterReadAvgLat::.cpu0.data     37454.43                       # Per-master read average memory access latency
system.mem_ctrls.masterReadAvgLat::.cpu1.inst     36617.43                       # Per-master read average memory access latency
system.mem_ctrls.masterReadAvgLat::.cpu1.data     38701.03                       # Per-master read average memory access latency
system.mem_ctrls.masterWriteAvgLat::.writebacks  53826966.68                       # Per-master write average memory access latency
system.mem_ctrls.pageHitRate                     0.00                       # Row buffer hit rate, read and write combined
system.mem_ctrls.rank1.actEnergy         3078384433.490166                       # Energy for activate commands per rank (pJ)
system.mem_ctrls.rank1.preEnergy         5434532519.116760                       # Energy for precharge commands per rank (pJ)
system.mem_ctrls.rank1.readEnergy        3216568729.655528                       # Energy for read commands per rank (pJ)
system.mem_ctrls.rank1.writeEnergy       1890606454.799469                       # Energy for write commands per rank (pJ)
system.mem_ctrls.rank1.refreshEnergy     137137173714.332535                       # Energy for refresh commands per rank (pJ)
system.mem_ctrls.rank1.actBackEnergy     53900956577.690475                       # Energy for active background per rank (pJ)
system.mem_ctrls.rank1.preBackEnergy     478442576979.255066                       # Energy for precharge background per rank (pJ)
system.mem_ctrls.rank1.actPowerDownEnergy            0                       # Energy for active power-down per rank (pJ)
system.mem_ctrls.rank1.prePowerDownEnergy            0                       # Energy for precharge power-down per rank (pJ)
system.mem_ctrls.rank1.selfRefreshEnergy            0                       # Energy for self refresh per rank (pJ)
system.mem_ctrls.rank1.totalEnergy       683100799409.169800                       # Total energy per rank (pJ)
system.mem_ctrls.rank1.averagePower        432.391419                       # Core power per rank (mW)
system.mem_ctrls.rank1.totalIdleTime                0                       # Total Idle time Per DRAM Rank
system.mem_ctrls.rank1.memoryStateTime::IDLE 1445696868096                       # Time in different power states
system.mem_ctrls.rank1.memoryStateTime::REF  71018150000                       # Time in different power states
system.mem_ctrls.rank1.memoryStateTime::SREF            0                       # Time in different power states
system.mem_ctrls.rank1.memoryStateTime::PRE_PDN            0                       # Time in different power states
system.mem_ctrls.rank1.memoryStateTime::ACT  63105415402                       # Time in different power states
system.mem_ctrls.rank1.memoryStateTime::ACT_PDN            0                       # Time in different power states
system.mem_ctrls.rank0.actEnergy         3081624816.818163                       # Energy for activate commands per rank (pJ)
system.mem_ctrls.rank0.preEnergy         5440253041.991974                       # Energy for precharge commands per rank (pJ)
system.mem_ctrls.rank0.readEnergy        3219777925.463534                       # Energy for read commands per rank (pJ)
system.mem_ctrls.rank0.writeEnergy       1892748477.647465                       # Energy for write commands per rank (pJ)
system.mem_ctrls.rank0.refreshEnergy     137137173714.332535                       # Energy for refresh commands per rank (pJ)
system.mem_ctrls.rank0.actBackEnergy     53884099729.134460                       # Energy for active background per rank (pJ)
system.mem_ctrls.rank0.preBackEnergy     478454214194.493896                       # Energy for precharge background per rank (pJ)
system.mem_ctrls.rank0.actPowerDownEnergy            0                       # Energy for active power-down per rank (pJ)
system.mem_ctrls.rank0.prePowerDownEnergy            0                       # Energy for precharge power-down per rank (pJ)
system.mem_ctrls.rank0.selfRefreshEnergy            0                       # Energy for self refresh per rank (pJ)
system.mem_ctrls.rank0.totalEnergy       683109891900.723999                       # Total energy per rank (pJ)
system.mem_ctrls.rank0.averagePower        432.397175                       # Core power per rank (mW)
system.mem_ctrls.rank0.totalIdleTime                0                       # Total Idle time Per DRAM Rank
system.mem_ctrls.rank0.memoryStateTime::IDLE 1445732015360                       # Time in different power states
system.mem_ctrls.rank0.memoryStateTime::REF  71018150000                       # Time in different power states
system.mem_ctrls.rank0.memoryStateTime::SREF            0                       # Time in different power states
system.mem_ctrls.rank0.memoryStateTime::PRE_PDN            0                       # Time in different power states
system.mem_ctrls.rank0.memoryStateTime::ACT  63070268138                       # Time in different power states
system.mem_ctrls.rank0.memoryStateTime::ACT_PDN            0                       # Time in different power states
system.cpu_clk_domain.clock                       333                       # Clock period in ticks
system.tol2bus.pwrStateResidencyTicks::UNDEFINED 1579820433498                       # Cumulative time (in ticks) in various power states
system.tol2bus.trans_dist::ReadResp          17457156                       # Transaction distribution
system.tol2bus.trans_dist::WritebackDirty     19170270                       # Transaction distribution
system.tol2bus.trans_dist::WritebackClean         1489                       # Transaction distribution
system.tol2bus.trans_dist::CleanEvict         6738137                       # Transaction distribution
system.tol2bus.trans_dist::ReadExReq          6368856                       # Transaction distribution
system.tol2bus.trans_dist::ReadExResp         6368856                       # Transaction distribution
system.tol2bus.trans_dist::ReadCleanReq          2432                       # Transaction distribution
system.tol2bus.trans_dist::ReadSharedReq     17454724                       # Transaction distribution
system.tol2bus.pkt_count_system.cpu0.icache.mem_side::system.l2.cpu_side          916                       # Packet count per connected master and slave (bytes)
system.tol2bus.pkt_count_system.cpu0.dcache.mem_side::system.l2.cpu_side      1043740                       # Packet count per connected master and slave (bytes)
system.tol2bus.pkt_count_system.cpu1.icache.mem_side::system.l2.cpu_side         5437                       # Packet count per connected master and slave (bytes)
system.tol2bus.pkt_count_system.cpu1.dcache.mem_side::system.l2.cpu_side     70426984                       # Packet count per connected master and slave (bytes)
system.tol2bus.pkt_count::total              71477077                       # Packet count per connected master and slave (bytes)
system.tol2bus.pkt_size_system.cpu0.icache.mem_side::system.l2.cpu_side        29888                       # Cumulative packet size per connected master and slave (bytes)
system.tol2bus.pkt_size_system.cpu0.dcache.mem_side::system.l2.cpu_side     22299520                       # Cumulative packet size per connected master and slave (bytes)
system.tol2bus.pkt_size_system.cpu1.icache.mem_side::system.l2.cpu_side       221056                       # Cumulative packet size per connected master and slave (bytes)
system.tol2bus.pkt_size_system.cpu1.dcache.mem_side::system.l2.cpu_side   2626663104                       # Cumulative packet size per connected master and slave (bytes)
system.tol2bus.pkt_size::total             2649213568                       # Cumulative packet size per connected master and slave (bytes)
system.tol2bus.snoops                         2084843                       # Total snoops (count)
system.tol2bus.snoopTraffic                 102643776                       # Total snoop traffic (bytes)
system.tol2bus.snoop_fanout::samples         25910855                       # Request fanout histogram
system.tol2bus.snoop_fanout::mean            0.000054                       # Request fanout histogram
system.tol2bus.snoop_fanout::stdev           0.007350                       # Request fanout histogram
system.tol2bus.snoop_fanout::underflows             0      0.00%      0.00% # Request fanout histogram
system.tol2bus.snoop_fanout::0               25909455     99.99%     99.99% # Request fanout histogram
system.tol2bus.snoop_fanout::1                   1400      0.01%    100.00% # Request fanout histogram
system.tol2bus.snoop_fanout::2                      0      0.00%    100.00% # Request fanout histogram
system.tol2bus.snoop_fanout::3                      0      0.00%    100.00% # Request fanout histogram
system.tol2bus.snoop_fanout::4                      0      0.00%    100.00% # Request fanout histogram
system.tol2bus.snoop_fanout::5                      0      0.00%    100.00% # Request fanout histogram
system.tol2bus.snoop_fanout::6                      0      0.00%    100.00% # Request fanout histogram
system.tol2bus.snoop_fanout::7                      0      0.00%    100.00% # Request fanout histogram
system.tol2bus.snoop_fanout::8                      0      0.00%    100.00% # Request fanout histogram
system.tol2bus.snoop_fanout::overflows              0      0.00%    100.00% # Request fanout histogram
system.tol2bus.snoop_fanout::min_value              0                       # Request fanout histogram
system.tol2bus.snoop_fanout::max_value              1                       # Request fanout histogram
system.tol2bus.snoop_fanout::total           25910855                       # Request fanout histogram
system.tol2bus.reqLayer0.occupancy        27568059345                       # Layer occupancy (ticks)
system.tol2bus.reqLayer0.utilization              1.7                       # Layer utilization (%)
system.tol2bus.respLayer5.occupancy       23452188336                       # Layer occupancy (ticks)
system.tol2bus.respLayer5.utilization             1.5                       # Layer utilization (%)
system.tol2bus.respLayer4.occupancy           1981017                       # Layer occupancy (ticks)
system.tol2bus.respLayer4.utilization             0.0                       # Layer utilization (%)
system.tol2bus.respLayer1.occupancy         349607228                       # Layer occupancy (ticks)
system.tol2bus.respLayer1.utilization             0.0                       # Layer utilization (%)
system.tol2bus.respLayer0.occupancy            450211                       # Layer occupancy (ticks)
system.tol2bus.respLayer0.utilization             0.0                       # Layer utilization (%)

---------- End Simulation Statistics   ----------
