
---------- Begin Simulation Statistics ----------
final_tick                               2490139323045                       # Number of ticks from beginning of simulation (restored from checkpoints and never reset)
host_inst_rate                                 576019                       # Simulator instruction rate (inst/s)
host_mem_usage                               10949020                       # Number of bytes of host memory used
host_op_rate                                  1160610                       # Simulator op (including micro ops) rate (op/s)
host_seconds                                  1784.30                       # Real time elapsed on the host
host_tick_rate                             1395586720                       # Simulator tick rate (ticks/s)
sim_freq                                 1000000000000                       # Frequency of simulated ticks
sim_insts                                  1027788100                       # Number of instructions simulated
sim_ops                                    2070870638                       # Number of ops (including micro ops) simulated
sim_seconds                                  2.490139                       # Number of seconds simulated
sim_ticks                                2490139323045                       # Number of ticks simulated
system.cpu0.Branches                          2780018                       # Number of branches fetched
system.cpu0.committedInsts                   27788099                       # Number of instructions committed
system.cpu0.committedOps                     52797721                       # Number of ops (including micro ops) committed
system.cpu0.dtb.rdAccesses                   11113063                       # TLB accesses on read requests
system.cpu0.dtb.rdMisses                         5446                       # TLB misses on read requests
system.cpu0.dtb.wrAccesses                    5557395                       # TLB accesses on write requests
system.cpu0.dtb.wrMisses                            8                       # TLB misses on write requests
system.cpu0.idle_fraction                    0.972829                       # Percentage of idle cycles
system.cpu0.itb.rdAccesses                          0                       # TLB accesses on read requests
system.cpu0.itb.rdMisses                            0                       # TLB misses on read requests
system.cpu0.itb.wrAccesses                   38902351                       # TLB accesses on write requests
system.cpu0.itb.wrMisses                           46                       # TLB misses on write requests
system.cpu0.not_idle_fraction                0.027171                       # Percentage of non-idle cycles
system.cpu0.numCycles                       203184421                       # number of cpu cycles simulated
system.cpu0.numWorkItemsCompleted                   0                       # number of work items this cpu completed
system.cpu0.numWorkItemsStarted                     0                       # number of work items this cpu started
system.cpu0.num_busy_cycles              5520792.169669                       # Number of busy cycles
system.cpu0.num_cc_register_reads            13899961                       # number of times the CC registers were read
system.cpu0.num_cc_register_writes           16672913                       # number of times the CC registers were written
system.cpu0.num_conditional_control_insts      2779471                       # number of instructions that are conditional controls
system.cpu0.num_fp_alu_accesses                  1214                       # Number of float alu accesses
system.cpu0.num_fp_insts                         1214                       # number of float instructions
system.cpu0.num_fp_register_reads                1401                       # number of times the floating registers were read
system.cpu0.num_fp_register_writes                679                       # number of times the floating registers were written
system.cpu0.num_func_calls                        384                       # number of times a function call or return occured
system.cpu0.num_idle_cycles              197663628.830331                       # Number of idle cycles
system.cpu0.num_int_alu_accesses             52796880                       # Number of integer alu accesses
system.cpu0.num_int_insts                    52796880                       # number of integer instructions
system.cpu0.num_int_register_reads          105592520                       # number of times the integer registers were read
system.cpu0.num_int_register_writes          44459432                       # number of times the integer registers were written
system.cpu0.num_load_insts                   11113060                       # Number of load instructions
system.cpu0.num_mem_refs                     16670454                       # number of memory refs
system.cpu0.num_store_insts                   5557394                       # Number of store instructions
system.cpu0.num_vec_alu_accesses                    0                       # Number of vector alu accesses
system.cpu0.num_vec_insts                           0                       # number of vector instructions
system.cpu0.num_vec_register_reads                  0                       # number of times the vector registers were read
system.cpu0.num_vec_register_writes                 0                       # number of times the vector registers were written
system.cpu0.op_class::No_OpClass                  336      0.00%      0.00% # Class of executed instruction
system.cpu0.op_class::IntAlu                 36126368     68.42%     68.42% # Class of executed instruction
system.cpu0.op_class::IntMult                       5      0.00%     68.42% # Class of executed instruction
system.cpu0.op_class::IntDiv                       28      0.00%     68.42% # Class of executed instruction
system.cpu0.op_class::FloatAdd                    144      0.00%     68.43% # Class of executed instruction
system.cpu0.op_class::FloatCmp                      0      0.00%     68.43% # Class of executed instruction
system.cpu0.op_class::FloatCvt                      0      0.00%     68.43% # Class of executed instruction
system.cpu0.op_class::FloatMult                     0      0.00%     68.43% # Class of executed instruction
system.cpu0.op_class::FloatMultAcc                  0      0.00%     68.43% # Class of executed instruction
system.cpu0.op_class::FloatDiv                      0      0.00%     68.43% # Class of executed instruction
system.cpu0.op_class::FloatMisc                     0      0.00%     68.43% # Class of executed instruction
system.cpu0.op_class::FloatSqrt                     0      0.00%     68.43% # Class of executed instruction
system.cpu0.op_class::SimdAdd                       0      0.00%     68.43% # Class of executed instruction
system.cpu0.op_class::SimdAddAcc                    0      0.00%     68.43% # Class of executed instruction
system.cpu0.op_class::SimdAlu                     104      0.00%     68.43% # Class of executed instruction
system.cpu0.op_class::SimdCmp                       0      0.00%     68.43% # Class of executed instruction
system.cpu0.op_class::SimdCvt                      54      0.00%     68.43% # Class of executed instruction
system.cpu0.op_class::SimdMisc                    228      0.00%     68.43% # Class of executed instruction
system.cpu0.op_class::SimdMult                      0      0.00%     68.43% # Class of executed instruction
system.cpu0.op_class::SimdMultAcc                   0      0.00%     68.43% # Class of executed instruction
system.cpu0.op_class::SimdShift                     0      0.00%     68.43% # Class of executed instruction
system.cpu0.op_class::SimdShiftAcc                  0      0.00%     68.43% # Class of executed instruction
system.cpu0.op_class::SimdDiv                       0      0.00%     68.43% # Class of executed instruction
system.cpu0.op_class::SimdSqrt                      0      0.00%     68.43% # Class of executed instruction
system.cpu0.op_class::SimdFloatAdd                  0      0.00%     68.43% # Class of executed instruction
system.cpu0.op_class::SimdFloatAlu                  0      0.00%     68.43% # Class of executed instruction
system.cpu0.op_class::SimdFloatCmp                  0      0.00%     68.43% # Class of executed instruction
system.cpu0.op_class::SimdFloatCvt                  0      0.00%     68.43% # Class of executed instruction
system.cpu0.op_class::SimdFloatDiv                  0      0.00%     68.43% # Class of executed instruction
system.cpu0.op_class::SimdFloatMisc                 0      0.00%     68.43% # Class of executed instruction
system.cpu0.op_class::SimdFloatMult                 0      0.00%     68.43% # Class of executed instruction
system.cpu0.op_class::SimdFloatMultAcc              0      0.00%     68.43% # Class of executed instruction
system.cpu0.op_class::SimdFloatSqrt                 0      0.00%     68.43% # Class of executed instruction
system.cpu0.op_class::SimdReduceAdd                 0      0.00%     68.43% # Class of executed instruction
system.cpu0.op_class::SimdReduceAlu                 0      0.00%     68.43% # Class of executed instruction
system.cpu0.op_class::SimdReduceCmp                 0      0.00%     68.43% # Class of executed instruction
system.cpu0.op_class::SimdFloatReduceAdd            0      0.00%     68.43% # Class of executed instruction
system.cpu0.op_class::SimdFloatReduceCmp            0      0.00%     68.43% # Class of executed instruction
system.cpu0.op_class::SimdAes                       0      0.00%     68.43% # Class of executed instruction
system.cpu0.op_class::SimdAesMix                    0      0.00%     68.43% # Class of executed instruction
system.cpu0.op_class::SimdSha1Hash                  0      0.00%     68.43% # Class of executed instruction
system.cpu0.op_class::SimdSha1Hash2                 0      0.00%     68.43% # Class of executed instruction
system.cpu0.op_class::SimdSha256Hash                0      0.00%     68.43% # Class of executed instruction
system.cpu0.op_class::SimdSha256Hash2               0      0.00%     68.43% # Class of executed instruction
system.cpu0.op_class::SimdShaSigma2                 0      0.00%     68.43% # Class of executed instruction
system.cpu0.op_class::SimdShaSigma3                 0      0.00%     68.43% # Class of executed instruction
system.cpu0.op_class::SimdPredAlu                   0      0.00%     68.43% # Class of executed instruction
system.cpu0.op_class::MemRead                11113000     21.05%     89.47% # Class of executed instruction
system.cpu0.op_class::MemWrite                5556913     10.52%    100.00% # Class of executed instruction
system.cpu0.op_class::FloatMemRead                 60      0.00%    100.00% # Class of executed instruction
system.cpu0.op_class::FloatMemWrite               481      0.00%    100.00% # Class of executed instruction
system.cpu0.op_class::IprAccess                     0      0.00%    100.00% # Class of executed instruction
system.cpu0.op_class::InstPrefetch                  0      0.00%    100.00% # Class of executed instruction
system.cpu0.op_class::total                  52797721                       # Class of executed instruction
system.cpu0.workload.numSyscalls                   12                       # Number of system calls
system.cpu1.Branches                        210300845                       # Number of branches fetched
system.cpu1.committedInsts                 1000000001                       # Number of instructions committed
system.cpu1.committedOps                   2018072917                       # Number of ops (including micro ops) committed
system.cpu1.dtb.rdAccesses                  287636760                       # TLB accesses on read requests
system.cpu1.dtb.rdMisses                      2444879                       # TLB misses on read requests
system.cpu1.dtb.wrAccesses                  164149328                       # TLB accesses on write requests
system.cpu1.dtb.wrMisses                       255893                       # TLB misses on write requests
system.cpu1.idle_fraction                           0                       # Percentage of idle cycles
system.cpu1.itb.rdAccesses                          0                       # TLB accesses on read requests
system.cpu1.itb.rdMisses                            0                       # TLB misses on read requests
system.cpu1.itb.wrAccesses                 1301269561                       # TLB accesses on write requests
system.cpu1.itb.wrMisses                      2664458                       # TLB misses on write requests
system.cpu1.not_idle_fraction                       1                       # Percentage of non-idle cycles
system.cpu1.numCycles                      7477895865                       # number of cpu cycles simulated
system.cpu1.numWorkItemsCompleted                   0                       # number of work items this cpu completed
system.cpu1.numWorkItemsStarted                     0                       # number of work items this cpu started
system.cpu1.num_busy_cycles                7477895865                       # Number of busy cycles
system.cpu1.num_cc_register_reads           919653735                       # number of times the CC registers were read
system.cpu1.num_cc_register_writes          517593296                       # number of times the CC registers were written
system.cpu1.num_conditional_control_insts    147342256                       # number of instructions that are conditional controls
system.cpu1.num_fp_alu_accesses              17225397                       # Number of float alu accesses
system.cpu1.num_fp_insts                     17225397                       # number of float instructions
system.cpu1.num_fp_register_reads            17959659                       # number of times the floating registers were read
system.cpu1.num_fp_register_writes            8737221                       # number of times the floating registers were written
system.cpu1.num_func_calls                   41900723                       # number of times a function call or return occured
system.cpu1.num_idle_cycles                         0                       # Number of idle cycles
system.cpu1.num_int_alu_accesses           1992541751                       # Number of integer alu accesses
system.cpu1.num_int_insts                  1992541751                       # number of integer instructions
system.cpu1.num_int_register_reads         4060957505                       # number of times the integer registers were read
system.cpu1.num_int_register_writes        1618530791                       # number of times the integer registers were written
system.cpu1.num_load_insts                  287613343                       # Number of load instructions
system.cpu1.num_mem_refs                    451755955                       # number of memory refs
system.cpu1.num_store_insts                 164142612                       # Number of store instructions
system.cpu1.num_vec_alu_accesses                    0                       # Number of vector alu accesses
system.cpu1.num_vec_insts                           0                       # number of vector instructions
system.cpu1.num_vec_register_reads                  0                       # number of times the vector registers were read
system.cpu1.num_vec_register_writes                 0                       # number of times the vector registers were written
system.cpu1.op_class::No_OpClass             20345619      1.01%      1.01% # Class of executed instruction
system.cpu1.op_class::IntAlu               1537589604     76.19%     77.20% # Class of executed instruction
system.cpu1.op_class::IntMult                 2341697      0.12%     77.32% # Class of executed instruction
system.cpu1.op_class::IntDiv                   664679      0.03%     77.35% # Class of executed instruction
system.cpu1.op_class::FloatAdd                 764728      0.04%     77.39% # Class of executed instruction
system.cpu1.op_class::FloatCmp                      0      0.00%     77.39% # Class of executed instruction
system.cpu1.op_class::FloatCvt                      0      0.00%     77.39% # Class of executed instruction
system.cpu1.op_class::FloatMult                     0      0.00%     77.39% # Class of executed instruction
system.cpu1.op_class::FloatMultAcc                  0      0.00%     77.39% # Class of executed instruction
system.cpu1.op_class::FloatDiv                      0      0.00%     77.39% # Class of executed instruction
system.cpu1.op_class::FloatMisc                     0      0.00%     77.39% # Class of executed instruction
system.cpu1.op_class::FloatSqrt                     0      0.00%     77.39% # Class of executed instruction
system.cpu1.op_class::SimdAdd                   24274      0.00%     77.39% # Class of executed instruction
system.cpu1.op_class::SimdAddAcc                    0      0.00%     77.39% # Class of executed instruction
system.cpu1.op_class::SimdAlu                 1494670      0.07%     77.46% # Class of executed instruction
system.cpu1.op_class::SimdCmp                      96      0.00%     77.46% # Class of executed instruction
system.cpu1.op_class::SimdCvt                  209508      0.01%     77.47% # Class of executed instruction
system.cpu1.op_class::SimdMisc                2878559      0.14%     77.61% # Class of executed instruction
system.cpu1.op_class::SimdMult                      0      0.00%     77.61% # Class of executed instruction
system.cpu1.op_class::SimdMultAcc                   0      0.00%     77.61% # Class of executed instruction
system.cpu1.op_class::SimdShift                  3377      0.00%     77.61% # Class of executed instruction
system.cpu1.op_class::SimdShiftAcc                  0      0.00%     77.61% # Class of executed instruction
system.cpu1.op_class::SimdDiv                       0      0.00%     77.61% # Class of executed instruction
system.cpu1.op_class::SimdSqrt                      0      0.00%     77.61% # Class of executed instruction
system.cpu1.op_class::SimdFloatAdd                  5      0.00%     77.61% # Class of executed instruction
system.cpu1.op_class::SimdFloatAlu                  0      0.00%     77.61% # Class of executed instruction
system.cpu1.op_class::SimdFloatCmp                  2      0.00%     77.61% # Class of executed instruction
system.cpu1.op_class::SimdFloatCvt                 95      0.00%     77.61% # Class of executed instruction
system.cpu1.op_class::SimdFloatDiv                  1      0.00%     77.61% # Class of executed instruction
system.cpu1.op_class::SimdFloatMisc                 0      0.00%     77.61% # Class of executed instruction
system.cpu1.op_class::SimdFloatMult                48      0.00%     77.61% # Class of executed instruction
system.cpu1.op_class::SimdFloatMultAcc              0      0.00%     77.61% # Class of executed instruction
system.cpu1.op_class::SimdFloatSqrt                 0      0.00%     77.61% # Class of executed instruction
system.cpu1.op_class::SimdReduceAdd                 0      0.00%     77.61% # Class of executed instruction
system.cpu1.op_class::SimdReduceAlu                 0      0.00%     77.61% # Class of executed instruction
system.cpu1.op_class::SimdReduceCmp                 0      0.00%     77.61% # Class of executed instruction
system.cpu1.op_class::SimdFloatReduceAdd            0      0.00%     77.61% # Class of executed instruction
system.cpu1.op_class::SimdFloatReduceCmp            0      0.00%     77.61% # Class of executed instruction
system.cpu1.op_class::SimdAes                       0      0.00%     77.61% # Class of executed instruction
system.cpu1.op_class::SimdAesMix                    0      0.00%     77.61% # Class of executed instruction
system.cpu1.op_class::SimdSha1Hash                  0      0.00%     77.61% # Class of executed instruction
system.cpu1.op_class::SimdSha1Hash2                 0      0.00%     77.61% # Class of executed instruction
system.cpu1.op_class::SimdSha256Hash                0      0.00%     77.61% # Class of executed instruction
system.cpu1.op_class::SimdSha256Hash2               0      0.00%     77.61% # Class of executed instruction
system.cpu1.op_class::SimdShaSigma2                 0      0.00%     77.61% # Class of executed instruction
system.cpu1.op_class::SimdShaSigma3                 0      0.00%     77.61% # Class of executed instruction
system.cpu1.op_class::SimdPredAlu                   0      0.00%     77.61% # Class of executed instruction
system.cpu1.op_class::MemRead               284637539     14.10%     91.72% # Class of executed instruction
system.cpu1.op_class::MemWrite              155849628      7.72%     99.44% # Class of executed instruction
system.cpu1.op_class::FloatMemRead            2975804      0.15%     99.59% # Class of executed instruction
system.cpu1.op_class::FloatMemWrite           8292984      0.41%    100.00% # Class of executed instruction
system.cpu1.op_class::IprAccess                     0      0.00%    100.00% # Class of executed instruction
system.cpu1.op_class::InstPrefetch                  0      0.00%    100.00% # Class of executed instruction
system.cpu1.op_class::total                2018072917                       # Class of executed instruction
system.cpu1.workload.numSyscalls                  232                       # Number of system calls
system.membus.snoop_filter.hit_multi_requests            0                       # Number of requests hitting in the snoop filter with multiple (>1) holders of the requested data.
system.membus.snoop_filter.hit_multi_snoops            0                       # Number of snoops hitting in the snoop filter with multiple (>1) holders of the requested data.
system.membus.snoop_filter.hit_single_requests       700129                       # Number of requests hitting in the snoop filter with a single holder of the requested data.
system.membus.snoop_filter.hit_single_snoops            0                       # Number of snoops hitting in the snoop filter with a single holder of the requested data.
system.membus.snoop_filter.tot_requests       1662841                       # Total number of requests made to the snoop filter.
system.membus.snoop_filter.tot_snoops               0                       # Total number of snoops made to the snoop filter.
system.tol2bus.snoop_filter.hit_multi_requests            0                       # Number of requests hitting in the snoop filter with multiple (>1) holders of the requested data.
system.tol2bus.snoop_filter.hit_multi_snoops            0                       # Number of snoops hitting in the snoop filter with multiple (>1) holders of the requested data.
system.tol2bus.snoop_filter.hit_single_requests    122446257                       # Number of requests hitting in the snoop filter with a single holder of the requested data.
system.tol2bus.snoop_filter.hit_single_snoops         1739                       # Number of snoops hitting in the snoop filter with a single holder of the requested data.
system.tol2bus.snoop_filter.tot_requests    244893473                       # Total number of requests made to the snoop filter.
system.tol2bus.snoop_filter.tot_snoops           1739                       # Total number of snoops made to the snoop filter.
system.membus.pwrStateResidencyTicks::UNDEFINED 2490139323045                       # Cumulative time (in ticks) in various power states
system.membus.trans_dist::ReadResp             419685                       # Transaction distribution
system.membus.trans_dist::WritebackDirty       331247                       # Transaction distribution
system.membus.trans_dist::CleanEvict           368882                       # Transaction distribution
system.membus.trans_dist::ReadExReq            543027                       # Transaction distribution
system.membus.trans_dist::ReadExResp           543027                       # Transaction distribution
system.membus.trans_dist::ReadSharedReq        419685                       # Transaction distribution
system.membus.pkt_count_system.l2.mem_side::system.mem_ctrls.port      2625553                       # Packet count per connected master and slave (bytes)
system.membus.pkt_count_system.l2.mem_side::total      2625553                       # Packet count per connected master and slave (bytes)
system.membus.pkt_count::total                2625553                       # Packet count per connected master and slave (bytes)
system.membus.pkt_size_system.l2.mem_side::system.mem_ctrls.port     82813376                       # Cumulative packet size per connected master and slave (bytes)
system.membus.pkt_size_system.l2.mem_side::total     82813376                       # Cumulative packet size per connected master and slave (bytes)
system.membus.pkt_size::total                82813376                       # Cumulative packet size per connected master and slave (bytes)
system.membus.snoops                                0                       # Total snoops (count)
system.membus.snoopTraffic                          0                       # Total snoop traffic (bytes)
system.membus.snoop_fanout::samples            962712                       # Request fanout histogram
system.membus.snoop_fanout::mean                    0                       # Request fanout histogram
system.membus.snoop_fanout::stdev                   0                       # Request fanout histogram
system.membus.snoop_fanout::underflows              0      0.00%      0.00% # Request fanout histogram
system.membus.snoop_fanout::0                  962712    100.00%    100.00% # Request fanout histogram
system.membus.snoop_fanout::1                       0      0.00%    100.00% # Request fanout histogram
system.membus.snoop_fanout::overflows               0      0.00%    100.00% # Request fanout histogram
system.membus.snoop_fanout::min_value               0                       # Request fanout histogram
system.membus.snoop_fanout::max_value               0                       # Request fanout histogram
system.membus.snoop_fanout::total              962712                       # Request fanout histogram
system.membus.reqLayer4.occupancy          3969080517                       # Layer occupancy (ticks)
system.membus.reqLayer4.utilization               0.2                       # Layer utilization (%)
system.membus.respLayer1.occupancy         5152038777                       # Layer occupancy (ticks)
system.membus.respLayer1.utilization              0.2                       # Layer utilization (%)
system.voltage_domain.voltage                       1                       # Voltage in Volts
system.clk_domain.clock                          1000                       # Clock period in ticks
system.cpu0.numPwrStateTransitions                  1                       # Number of power state transitions
system.cpu0.pwrStateResidencyTicks::ON   2490139323045                       # Cumulative time (in ticks) in various power states
system.cpu0.icache.pwrStateResidencyTicks::UNDEFINED 2490139323045                       # Cumulative time (in ticks) in various power states
system.cpu0.icache.demand_hits::.cpu0.inst     38901902                       # number of demand (read+write) hits
system.cpu0.icache.demand_hits::total        38901902                       # number of demand (read+write) hits
system.cpu0.icache.overall_hits::.cpu0.inst     38901902                       # number of overall hits
system.cpu0.icache.overall_hits::total       38901902                       # number of overall hits
system.cpu0.icache.demand_misses::.cpu0.inst          449                       # number of demand (read+write) misses
system.cpu0.icache.demand_misses::total           449                       # number of demand (read+write) misses
system.cpu0.icache.overall_misses::.cpu0.inst          449                       # number of overall misses
system.cpu0.icache.overall_misses::total          449                       # number of overall misses
system.cpu0.icache.demand_miss_latency::.cpu0.inst     38089539                       # number of demand (read+write) miss cycles
system.cpu0.icache.demand_miss_latency::total     38089539                       # number of demand (read+write) miss cycles
system.cpu0.icache.overall_miss_latency::.cpu0.inst     38089539                       # number of overall miss cycles
system.cpu0.icache.overall_miss_latency::total     38089539                       # number of overall miss cycles
system.cpu0.icache.demand_accesses::.cpu0.inst     38902351                       # number of demand (read+write) accesses
system.cpu0.icache.demand_accesses::total     38902351                       # number of demand (read+write) accesses
system.cpu0.icache.overall_accesses::.cpu0.inst     38902351                       # number of overall (read+write) accesses
system.cpu0.icache.overall_accesses::total     38902351                       # number of overall (read+write) accesses
system.cpu0.icache.demand_miss_rate::.cpu0.inst     0.000012                       # miss rate for demand accesses
system.cpu0.icache.demand_miss_rate::total     0.000012                       # miss rate for demand accesses
system.cpu0.icache.overall_miss_rate::.cpu0.inst     0.000012                       # miss rate for overall accesses
system.cpu0.icache.overall_miss_rate::total     0.000012                       # miss rate for overall accesses
system.cpu0.icache.demand_avg_miss_latency::.cpu0.inst 84831.935412                       # average overall miss latency
system.cpu0.icache.demand_avg_miss_latency::total 84831.935412                       # average overall miss latency
system.cpu0.icache.overall_avg_miss_latency::.cpu0.inst 84831.935412                       # average overall miss latency
system.cpu0.icache.overall_avg_miss_latency::total 84831.935412                       # average overall miss latency
system.cpu0.icache.blocked_cycles::no_mshrs            0                       # number of cycles access was blocked
system.cpu0.icache.blocked_cycles::no_targets            0                       # number of cycles access was blocked
system.cpu0.icache.blocked::no_mshrs                0                       # number of cycles access was blocked
system.cpu0.icache.blocked::no_targets              0                       # number of cycles access was blocked
system.cpu0.icache.avg_blocked_cycles::no_mshrs          nan                       # average number of cycles each access was blocked
system.cpu0.icache.avg_blocked_cycles::no_targets          nan                       # average number of cycles each access was blocked
system.cpu0.icache.writebacks::.writebacks           18                       # number of writebacks
system.cpu0.icache.writebacks::total               18                       # number of writebacks
system.cpu0.icache.demand_mshr_misses::.cpu0.inst          449                       # number of demand (read+write) MSHR misses
system.cpu0.icache.demand_mshr_misses::total          449                       # number of demand (read+write) MSHR misses
system.cpu0.icache.overall_mshr_misses::.cpu0.inst          449                       # number of overall MSHR misses
system.cpu0.icache.overall_mshr_misses::total          449                       # number of overall MSHR misses
system.cpu0.icache.demand_mshr_miss_latency::.cpu0.inst     37790505                       # number of demand (read+write) MSHR miss cycles
system.cpu0.icache.demand_mshr_miss_latency::total     37790505                       # number of demand (read+write) MSHR miss cycles
system.cpu0.icache.overall_mshr_miss_latency::.cpu0.inst     37790505                       # number of overall MSHR miss cycles
system.cpu0.icache.overall_mshr_miss_latency::total     37790505                       # number of overall MSHR miss cycles
system.cpu0.icache.demand_mshr_miss_rate::.cpu0.inst     0.000012                       # mshr miss rate for demand accesses
system.cpu0.icache.demand_mshr_miss_rate::total     0.000012                       # mshr miss rate for demand accesses
system.cpu0.icache.overall_mshr_miss_rate::.cpu0.inst     0.000012                       # mshr miss rate for overall accesses
system.cpu0.icache.overall_mshr_miss_rate::total     0.000012                       # mshr miss rate for overall accesses
system.cpu0.icache.demand_avg_mshr_miss_latency::.cpu0.inst 84165.935412                       # average overall mshr miss latency
system.cpu0.icache.demand_avg_mshr_miss_latency::total 84165.935412                       # average overall mshr miss latency
system.cpu0.icache.overall_avg_mshr_miss_latency::.cpu0.inst 84165.935412                       # average overall mshr miss latency
system.cpu0.icache.overall_avg_mshr_miss_latency::total 84165.935412                       # average overall mshr miss latency
system.cpu0.icache.replacements                    18                       # number of replacements
system.cpu0.icache.ReadReq_hits::.cpu0.inst     38901902                       # number of ReadReq hits
system.cpu0.icache.ReadReq_hits::total       38901902                       # number of ReadReq hits
system.cpu0.icache.ReadReq_misses::.cpu0.inst          449                       # number of ReadReq misses
system.cpu0.icache.ReadReq_misses::total          449                       # number of ReadReq misses
system.cpu0.icache.ReadReq_miss_latency::.cpu0.inst     38089539                       # number of ReadReq miss cycles
system.cpu0.icache.ReadReq_miss_latency::total     38089539                       # number of ReadReq miss cycles
system.cpu0.icache.ReadReq_accesses::.cpu0.inst     38902351                       # number of ReadReq accesses(hits+misses)
system.cpu0.icache.ReadReq_accesses::total     38902351                       # number of ReadReq accesses(hits+misses)
system.cpu0.icache.ReadReq_miss_rate::.cpu0.inst     0.000012                       # miss rate for ReadReq accesses
system.cpu0.icache.ReadReq_miss_rate::total     0.000012                       # miss rate for ReadReq accesses
system.cpu0.icache.ReadReq_avg_miss_latency::.cpu0.inst 84831.935412                       # average ReadReq miss latency
system.cpu0.icache.ReadReq_avg_miss_latency::total 84831.935412                       # average ReadReq miss latency
system.cpu0.icache.ReadReq_mshr_misses::.cpu0.inst          449                       # number of ReadReq MSHR misses
system.cpu0.icache.ReadReq_mshr_misses::total          449                       # number of ReadReq MSHR misses
system.cpu0.icache.ReadReq_mshr_miss_latency::.cpu0.inst     37790505                       # number of ReadReq MSHR miss cycles
system.cpu0.icache.ReadReq_mshr_miss_latency::total     37790505                       # number of ReadReq MSHR miss cycles
system.cpu0.icache.ReadReq_mshr_miss_rate::.cpu0.inst     0.000012                       # mshr miss rate for ReadReq accesses
system.cpu0.icache.ReadReq_mshr_miss_rate::total     0.000012                       # mshr miss rate for ReadReq accesses
system.cpu0.icache.ReadReq_avg_mshr_miss_latency::.cpu0.inst 84165.935412                       # average ReadReq mshr miss latency
system.cpu0.icache.ReadReq_avg_mshr_miss_latency::total 84165.935412                       # average ReadReq mshr miss latency
system.cpu0.icache.tags.pwrStateResidencyTicks::UNDEFINED 2490139323045                       # Cumulative time (in ticks) in various power states
system.cpu0.icache.tags.tagsinuse          428.740854                       # Cycle average of tags in use
system.cpu0.icache.tags.total_refs           38902351                       # Total number of references to valid blocks.
system.cpu0.icache.tags.sampled_refs              449                       # Sample count of references to valid blocks.
system.cpu0.icache.tags.avg_refs         86642.207127                       # Average number of references to valid blocks.
system.cpu0.icache.tags.warmup_cycle            83250                       # Cycle when the warmup percentage was hit.
system.cpu0.icache.tags.occ_blocks::.cpu0.inst   428.740854                       # Average occupied blocks per requestor
system.cpu0.icache.tags.occ_percent::.cpu0.inst     0.837384                       # Average percentage of cache occupancy
system.cpu0.icache.tags.occ_percent::total     0.837384                       # Average percentage of cache occupancy
system.cpu0.icache.tags.occ_task_id_blocks::1024          431                       # Occupied blocks per task id
system.cpu0.icache.tags.age_task_id_blocks_1024::4          431                       # Occupied blocks per task id
system.cpu0.icache.tags.occ_task_id_percent::1024     0.841797                       # Percentage of cache occupancy per task id
system.cpu0.icache.tags.tag_accesses        311219257                       # Number of tag accesses
system.cpu0.icache.tags.data_accesses       311219257                       # Number of data accesses
system.cpu0.icache.tags.repl_invalid                0                       # Number of initial replacements
system.cpu0.icache.tags.repl_valid_tag              0                       # Number of local replacements
system.cpu0.icache.tags.repl_valid_data             0                       # Number of global replacements
system.cpu0.dtb.walker.pwrStateResidencyTicks::UNDEFINED 2490139323045                       # Cumulative time (in ticks) in various power states
system.cpu0.interrupts.clk_domain.clock          5328                       # Clock period in ticks
system.cpu0.itb_walker_cache.pwrStateResidencyTicks::UNDEFINED 2490139323045                       # Cumulative time (in ticks) in various power states
system.cpu0.itb_walker_cache.blocked_cycles::no_mshrs            0                       # number of cycles access was blocked
system.cpu0.itb_walker_cache.blocked_cycles::no_targets            0                       # number of cycles access was blocked
system.cpu0.itb_walker_cache.blocked::no_mshrs            0                       # number of cycles access was blocked
system.cpu0.itb_walker_cache.blocked::no_targets            0                       # number of cycles access was blocked
system.cpu0.itb_walker_cache.avg_blocked_cycles::no_mshrs          nan                       # average number of cycles each access was blocked
system.cpu0.itb_walker_cache.avg_blocked_cycles::no_targets          nan                       # average number of cycles each access was blocked
system.cpu0.itb_walker_cache.replacements            0                       # number of replacements
system.cpu0.itb_walker_cache.tags.pwrStateResidencyTicks::UNDEFINED 2490139323045                       # Cumulative time (in ticks) in various power states
system.cpu0.itb_walker_cache.tags.tagsinuse            0                       # Cycle average of tags in use
system.cpu0.itb_walker_cache.tags.total_refs            0                       # Total number of references to valid blocks.
system.cpu0.itb_walker_cache.tags.sampled_refs            0                       # Sample count of references to valid blocks.
system.cpu0.itb_walker_cache.tags.avg_refs          nan                       # Average number of references to valid blocks.
system.cpu0.itb_walker_cache.tags.warmup_cycle            0                       # Cycle when the warmup percentage was hit.
system.cpu0.itb_walker_cache.tags.tag_accesses            0                       # Number of tag accesses
system.cpu0.itb_walker_cache.tags.data_accesses            0                       # Number of data accesses
system.cpu0.itb_walker_cache.tags.repl_invalid            0                       # Number of initial replacements
system.cpu0.itb_walker_cache.tags.repl_valid_tag            0                       # Number of local replacements
system.cpu0.itb_walker_cache.tags.repl_valid_data            0                       # Number of global replacements
system.cpu0.itb.walker.pwrStateResidencyTicks::UNDEFINED 2490139323045                       # Cumulative time (in ticks) in various power states
system.cpu0.dtb_walker_cache.pwrStateResidencyTicks::UNDEFINED 2490139323045                       # Cumulative time (in ticks) in various power states
system.cpu0.dtb_walker_cache.blocked_cycles::no_mshrs            0                       # number of cycles access was blocked
system.cpu0.dtb_walker_cache.blocked_cycles::no_targets            0                       # number of cycles access was blocked
system.cpu0.dtb_walker_cache.blocked::no_mshrs            0                       # number of cycles access was blocked
system.cpu0.dtb_walker_cache.blocked::no_targets            0                       # number of cycles access was blocked
system.cpu0.dtb_walker_cache.avg_blocked_cycles::no_mshrs          nan                       # average number of cycles each access was blocked
system.cpu0.dtb_walker_cache.avg_blocked_cycles::no_targets          nan                       # average number of cycles each access was blocked
system.cpu0.dtb_walker_cache.replacements            0                       # number of replacements
system.cpu0.dtb_walker_cache.tags.pwrStateResidencyTicks::UNDEFINED 2490139323045                       # Cumulative time (in ticks) in various power states
system.cpu0.dtb_walker_cache.tags.tagsinuse            0                       # Cycle average of tags in use
system.cpu0.dtb_walker_cache.tags.total_refs            0                       # Total number of references to valid blocks.
system.cpu0.dtb_walker_cache.tags.sampled_refs            0                       # Sample count of references to valid blocks.
system.cpu0.dtb_walker_cache.tags.avg_refs          nan                       # Average number of references to valid blocks.
system.cpu0.dtb_walker_cache.tags.warmup_cycle            0                       # Cycle when the warmup percentage was hit.
system.cpu0.dtb_walker_cache.tags.tag_accesses            0                       # Number of tag accesses
system.cpu0.dtb_walker_cache.tags.data_accesses            0                       # Number of data accesses
system.cpu0.dtb_walker_cache.tags.repl_invalid            0                       # Number of initial replacements
system.cpu0.dtb_walker_cache.tags.repl_valid_tag            0                       # Number of local replacements
system.cpu0.dtb_walker_cache.tags.repl_valid_data            0                       # Number of global replacements
system.cpu0.dcache.pwrStateResidencyTicks::UNDEFINED 2490139323045                       # Cumulative time (in ticks) in various power states
system.cpu0.dcache.demand_hits::.cpu0.data     16322542                       # number of demand (read+write) hits
system.cpu0.dcache.demand_hits::total        16322542                       # number of demand (read+write) hits
system.cpu0.dcache.overall_hits::.cpu0.data     16322542                       # number of overall hits
system.cpu0.dcache.overall_hits::total       16322542                       # number of overall hits
system.cpu0.dcache.demand_misses::.cpu0.data       347916                       # number of demand (read+write) misses
system.cpu0.dcache.demand_misses::total        347916                       # number of demand (read+write) misses
system.cpu0.dcache.overall_misses::.cpu0.data       347916                       # number of overall misses
system.cpu0.dcache.overall_misses::total       347916                       # number of overall misses
system.cpu0.dcache.demand_miss_latency::.cpu0.data  30842866260                       # number of demand (read+write) miss cycles
system.cpu0.dcache.demand_miss_latency::total  30842866260                       # number of demand (read+write) miss cycles
system.cpu0.dcache.overall_miss_latency::.cpu0.data  30842866260                       # number of overall miss cycles
system.cpu0.dcache.overall_miss_latency::total  30842866260                       # number of overall miss cycles
system.cpu0.dcache.demand_accesses::.cpu0.data     16670458                       # number of demand (read+write) accesses
system.cpu0.dcache.demand_accesses::total     16670458                       # number of demand (read+write) accesses
system.cpu0.dcache.overall_accesses::.cpu0.data     16670458                       # number of overall (read+write) accesses
system.cpu0.dcache.overall_accesses::total     16670458                       # number of overall (read+write) accesses
system.cpu0.dcache.demand_miss_rate::.cpu0.data     0.020870                       # miss rate for demand accesses
system.cpu0.dcache.demand_miss_rate::total     0.020870                       # miss rate for demand accesses
system.cpu0.dcache.overall_miss_rate::.cpu0.data     0.020870                       # miss rate for overall accesses
system.cpu0.dcache.overall_miss_rate::total     0.020870                       # miss rate for overall accesses
system.cpu0.dcache.demand_avg_miss_latency::.cpu0.data 88650.324389                       # average overall miss latency
system.cpu0.dcache.demand_avg_miss_latency::total 88650.324389                       # average overall miss latency
system.cpu0.dcache.overall_avg_miss_latency::.cpu0.data 88650.324389                       # average overall miss latency
system.cpu0.dcache.overall_avg_miss_latency::total 88650.324389                       # average overall miss latency
system.cpu0.dcache.blocked_cycles::no_mshrs            0                       # number of cycles access was blocked
system.cpu0.dcache.blocked_cycles::no_targets            0                       # number of cycles access was blocked
system.cpu0.dcache.blocked::no_mshrs                0                       # number of cycles access was blocked
system.cpu0.dcache.blocked::no_targets              0                       # number of cycles access was blocked
system.cpu0.dcache.avg_blocked_cycles::no_mshrs          nan                       # average number of cycles each access was blocked
system.cpu0.dcache.avg_blocked_cycles::no_targets          nan                       # average number of cycles each access was blocked
system.cpu0.dcache.writebacks::.writebacks          514                       # number of writebacks
system.cpu0.dcache.writebacks::total              514                       # number of writebacks
system.cpu0.dcache.demand_mshr_misses::.cpu0.data       347916                       # number of demand (read+write) MSHR misses
system.cpu0.dcache.demand_mshr_misses::total       347916                       # number of demand (read+write) MSHR misses
system.cpu0.dcache.overall_mshr_misses::.cpu0.data       347916                       # number of overall MSHR misses
system.cpu0.dcache.overall_mshr_misses::total       347916                       # number of overall MSHR misses
system.cpu0.dcache.demand_mshr_miss_latency::.cpu0.data  30611154204                       # number of demand (read+write) MSHR miss cycles
system.cpu0.dcache.demand_mshr_miss_latency::total  30611154204                       # number of demand (read+write) MSHR miss cycles
system.cpu0.dcache.overall_mshr_miss_latency::.cpu0.data  30611154204                       # number of overall MSHR miss cycles
system.cpu0.dcache.overall_mshr_miss_latency::total  30611154204                       # number of overall MSHR miss cycles
system.cpu0.dcache.demand_mshr_miss_rate::.cpu0.data     0.020870                       # mshr miss rate for demand accesses
system.cpu0.dcache.demand_mshr_miss_rate::total     0.020870                       # mshr miss rate for demand accesses
system.cpu0.dcache.overall_mshr_miss_rate::.cpu0.data     0.020870                       # mshr miss rate for overall accesses
system.cpu0.dcache.overall_mshr_miss_rate::total     0.020870                       # mshr miss rate for overall accesses
system.cpu0.dcache.demand_avg_mshr_miss_latency::.cpu0.data 87984.324389                       # average overall mshr miss latency
system.cpu0.dcache.demand_avg_mshr_miss_latency::total 87984.324389                       # average overall mshr miss latency
system.cpu0.dcache.overall_avg_mshr_miss_latency::.cpu0.data 87984.324389                       # average overall mshr miss latency
system.cpu0.dcache.overall_avg_mshr_miss_latency::total 87984.324389                       # average overall mshr miss latency
system.cpu0.dcache.replacements                347908                       # number of replacements
system.cpu0.dcache.ReadReq_hits::.cpu0.data     10765403                       # number of ReadReq hits
system.cpu0.dcache.ReadReq_hits::total       10765403                       # number of ReadReq hits
system.cpu0.dcache.ReadReq_misses::.cpu0.data       347660                       # number of ReadReq misses
system.cpu0.dcache.ReadReq_misses::total       347660                       # number of ReadReq misses
system.cpu0.dcache.ReadReq_miss_latency::.cpu0.data  30830813325                       # number of ReadReq miss cycles
system.cpu0.dcache.ReadReq_miss_latency::total  30830813325                       # number of ReadReq miss cycles
system.cpu0.dcache.ReadReq_accesses::.cpu0.data     11113063                       # number of ReadReq accesses(hits+misses)
system.cpu0.dcache.ReadReq_accesses::total     11113063                       # number of ReadReq accesses(hits+misses)
system.cpu0.dcache.ReadReq_miss_rate::.cpu0.data     0.031284                       # miss rate for ReadReq accesses
system.cpu0.dcache.ReadReq_miss_rate::total     0.031284                       # miss rate for ReadReq accesses
system.cpu0.dcache.ReadReq_avg_miss_latency::.cpu0.data 88680.933455                       # average ReadReq miss latency
system.cpu0.dcache.ReadReq_avg_miss_latency::total 88680.933455                       # average ReadReq miss latency
system.cpu0.dcache.ReadReq_mshr_misses::.cpu0.data       347660                       # number of ReadReq MSHR misses
system.cpu0.dcache.ReadReq_mshr_misses::total       347660                       # number of ReadReq MSHR misses
system.cpu0.dcache.ReadReq_mshr_miss_latency::.cpu0.data  30599271765                       # number of ReadReq MSHR miss cycles
system.cpu0.dcache.ReadReq_mshr_miss_latency::total  30599271765                       # number of ReadReq MSHR miss cycles
system.cpu0.dcache.ReadReq_mshr_miss_rate::.cpu0.data     0.031284                       # mshr miss rate for ReadReq accesses
system.cpu0.dcache.ReadReq_mshr_miss_rate::total     0.031284                       # mshr miss rate for ReadReq accesses
system.cpu0.dcache.ReadReq_avg_mshr_miss_latency::.cpu0.data 88014.933455                       # average ReadReq mshr miss latency
system.cpu0.dcache.ReadReq_avg_mshr_miss_latency::total 88014.933455                       # average ReadReq mshr miss latency
system.cpu0.dcache.WriteReq_hits::.cpu0.data      5557139                       # number of WriteReq hits
system.cpu0.dcache.WriteReq_hits::total       5557139                       # number of WriteReq hits
system.cpu0.dcache.WriteReq_misses::.cpu0.data          256                       # number of WriteReq misses
system.cpu0.dcache.WriteReq_misses::total          256                       # number of WriteReq misses
system.cpu0.dcache.WriteReq_miss_latency::.cpu0.data     12052935                       # number of WriteReq miss cycles
system.cpu0.dcache.WriteReq_miss_latency::total     12052935                       # number of WriteReq miss cycles
system.cpu0.dcache.WriteReq_accesses::.cpu0.data      5557395                       # number of WriteReq accesses(hits+misses)
system.cpu0.dcache.WriteReq_accesses::total      5557395                       # number of WriteReq accesses(hits+misses)
system.cpu0.dcache.WriteReq_miss_rate::.cpu0.data     0.000046                       # miss rate for WriteReq accesses
system.cpu0.dcache.WriteReq_miss_rate::total     0.000046                       # miss rate for WriteReq accesses
system.cpu0.dcache.WriteReq_avg_miss_latency::.cpu0.data 47081.777344                       # average WriteReq miss latency
system.cpu0.dcache.WriteReq_avg_miss_latency::total 47081.777344                       # average WriteReq miss latency
system.cpu0.dcache.WriteReq_mshr_misses::.cpu0.data          256                       # number of WriteReq MSHR misses
system.cpu0.dcache.WriteReq_mshr_misses::total          256                       # number of WriteReq MSHR misses
system.cpu0.dcache.WriteReq_mshr_miss_latency::.cpu0.data     11882439                       # number of WriteReq MSHR miss cycles
system.cpu0.dcache.WriteReq_mshr_miss_latency::total     11882439                       # number of WriteReq MSHR miss cycles
system.cpu0.dcache.WriteReq_mshr_miss_rate::.cpu0.data     0.000046                       # mshr miss rate for WriteReq accesses
system.cpu0.dcache.WriteReq_mshr_miss_rate::total     0.000046                       # mshr miss rate for WriteReq accesses
system.cpu0.dcache.WriteReq_avg_mshr_miss_latency::.cpu0.data 46415.777344                       # average WriteReq mshr miss latency
system.cpu0.dcache.WriteReq_avg_mshr_miss_latency::total 46415.777344                       # average WriteReq mshr miss latency
system.cpu0.dcache.tags.pwrStateResidencyTicks::UNDEFINED 2490139323045                       # Cumulative time (in ticks) in various power states
system.cpu0.dcache.tags.tagsinuse            7.999998                       # Cycle average of tags in use
system.cpu0.dcache.tags.total_refs           16670458                       # Total number of references to valid blocks.
system.cpu0.dcache.tags.sampled_refs           347916                       # Sample count of references to valid blocks.
system.cpu0.dcache.tags.avg_refs            47.915181                       # Average number of references to valid blocks.
system.cpu0.dcache.tags.warmup_cycle           166167                       # Cycle when the warmup percentage was hit.
system.cpu0.dcache.tags.occ_blocks::.cpu0.data     7.999998                       # Average occupied blocks per requestor
system.cpu0.dcache.tags.occ_percent::.cpu0.data     1.000000                       # Average percentage of cache occupancy
system.cpu0.dcache.tags.occ_percent::total     1.000000                       # Average percentage of cache occupancy
system.cpu0.dcache.tags.occ_task_id_blocks::1024            8                       # Occupied blocks per task id
system.cpu0.dcache.tags.age_task_id_blocks_1024::4            8                       # Occupied blocks per task id
system.cpu0.dcache.tags.occ_task_id_percent::1024            1                       # Percentage of cache occupancy per task id
system.cpu0.dcache.tags.tag_accesses        133711580                       # Number of tag accesses
system.cpu0.dcache.tags.data_accesses       133711580                       # Number of data accesses
system.cpu0.dcache.tags.repl_invalid                0                       # Number of initial replacements
system.cpu0.dcache.tags.repl_valid_tag              0                       # Number of local replacements
system.cpu0.dcache.tags.repl_valid_data             0                       # Number of global replacements
system.cpu1.numPwrStateTransitions                  1                       # Number of power state transitions
system.cpu1.pwrStateResidencyTicks::ON   2490139323045                       # Cumulative time (in ticks) in various power states
system.cpu1.icache.pwrStateResidencyTicks::UNDEFINED 2490139323045                       # Cumulative time (in ticks) in various power states
system.cpu1.icache.demand_hits::.cpu1.inst   1281029370                       # number of demand (read+write) hits
system.cpu1.icache.demand_hits::total      1281029370                       # number of demand (read+write) hits
system.cpu1.icache.overall_hits::.cpu1.inst   1281029370                       # number of overall hits
system.cpu1.icache.overall_hits::total     1281029370                       # number of overall hits
system.cpu1.icache.demand_misses::.cpu1.inst     20240191                       # number of demand (read+write) misses
system.cpu1.icache.demand_misses::total      20240191                       # number of demand (read+write) misses
system.cpu1.icache.overall_misses::.cpu1.inst     20240191                       # number of overall misses
system.cpu1.icache.overall_misses::total     20240191                       # number of overall misses
system.cpu1.icache.demand_miss_latency::.cpu1.inst 224021097324                       # number of demand (read+write) miss cycles
system.cpu1.icache.demand_miss_latency::total 224021097324                       # number of demand (read+write) miss cycles
system.cpu1.icache.overall_miss_latency::.cpu1.inst 224021097324                       # number of overall miss cycles
system.cpu1.icache.overall_miss_latency::total 224021097324                       # number of overall miss cycles
system.cpu1.icache.demand_accesses::.cpu1.inst   1301269561                       # number of demand (read+write) accesses
system.cpu1.icache.demand_accesses::total   1301269561                       # number of demand (read+write) accesses
system.cpu1.icache.overall_accesses::.cpu1.inst   1301269561                       # number of overall (read+write) accesses
system.cpu1.icache.overall_accesses::total   1301269561                       # number of overall (read+write) accesses
system.cpu1.icache.demand_miss_rate::.cpu1.inst     0.015554                       # miss rate for demand accesses
system.cpu1.icache.demand_miss_rate::total     0.015554                       # miss rate for demand accesses
system.cpu1.icache.overall_miss_rate::.cpu1.inst     0.015554                       # miss rate for overall accesses
system.cpu1.icache.overall_miss_rate::total     0.015554                       # miss rate for overall accesses
system.cpu1.icache.demand_avg_miss_latency::.cpu1.inst 11068.131587                       # average overall miss latency
system.cpu1.icache.demand_avg_miss_latency::total 11068.131587                       # average overall miss latency
system.cpu1.icache.overall_avg_miss_latency::.cpu1.inst 11068.131587                       # average overall miss latency
system.cpu1.icache.overall_avg_miss_latency::total 11068.131587                       # average overall miss latency
system.cpu1.icache.blocked_cycles::no_mshrs            0                       # number of cycles access was blocked
system.cpu1.icache.blocked_cycles::no_targets            0                       # number of cycles access was blocked
system.cpu1.icache.blocked::no_mshrs                0                       # number of cycles access was blocked
system.cpu1.icache.blocked::no_targets              0                       # number of cycles access was blocked
system.cpu1.icache.avg_blocked_cycles::no_mshrs          nan                       # average number of cycles each access was blocked
system.cpu1.icache.avg_blocked_cycles::no_targets          nan                       # average number of cycles each access was blocked
system.cpu1.icache.writebacks::.writebacks     20239679                       # number of writebacks
system.cpu1.icache.writebacks::total         20239679                       # number of writebacks
system.cpu1.icache.demand_mshr_misses::.cpu1.inst     20240191                       # number of demand (read+write) MSHR misses
system.cpu1.icache.demand_mshr_misses::total     20240191                       # number of demand (read+write) MSHR misses
system.cpu1.icache.overall_mshr_misses::.cpu1.inst     20240191                       # number of overall MSHR misses
system.cpu1.icache.overall_mshr_misses::total     20240191                       # number of overall MSHR misses
system.cpu1.icache.demand_mshr_miss_latency::.cpu1.inst 210541130118                       # number of demand (read+write) MSHR miss cycles
system.cpu1.icache.demand_mshr_miss_latency::total 210541130118                       # number of demand (read+write) MSHR miss cycles
system.cpu1.icache.overall_mshr_miss_latency::.cpu1.inst 210541130118                       # number of overall MSHR miss cycles
system.cpu1.icache.overall_mshr_miss_latency::total 210541130118                       # number of overall MSHR miss cycles
system.cpu1.icache.demand_mshr_miss_rate::.cpu1.inst     0.015554                       # mshr miss rate for demand accesses
system.cpu1.icache.demand_mshr_miss_rate::total     0.015554                       # mshr miss rate for demand accesses
system.cpu1.icache.overall_mshr_miss_rate::.cpu1.inst     0.015554                       # mshr miss rate for overall accesses
system.cpu1.icache.overall_mshr_miss_rate::total     0.015554                       # mshr miss rate for overall accesses
system.cpu1.icache.demand_avg_mshr_miss_latency::.cpu1.inst 10402.131587                       # average overall mshr miss latency
system.cpu1.icache.demand_avg_mshr_miss_latency::total 10402.131587                       # average overall mshr miss latency
system.cpu1.icache.overall_avg_mshr_miss_latency::.cpu1.inst 10402.131587                       # average overall mshr miss latency
system.cpu1.icache.overall_avg_mshr_miss_latency::total 10402.131587                       # average overall mshr miss latency
system.cpu1.icache.replacements              20239679                       # number of replacements
system.cpu1.icache.ReadReq_hits::.cpu1.inst   1281029370                       # number of ReadReq hits
system.cpu1.icache.ReadReq_hits::total     1281029370                       # number of ReadReq hits
system.cpu1.icache.ReadReq_misses::.cpu1.inst     20240191                       # number of ReadReq misses
system.cpu1.icache.ReadReq_misses::total     20240191                       # number of ReadReq misses
system.cpu1.icache.ReadReq_miss_latency::.cpu1.inst 224021097324                       # number of ReadReq miss cycles
system.cpu1.icache.ReadReq_miss_latency::total 224021097324                       # number of ReadReq miss cycles
system.cpu1.icache.ReadReq_accesses::.cpu1.inst   1301269561                       # number of ReadReq accesses(hits+misses)
system.cpu1.icache.ReadReq_accesses::total   1301269561                       # number of ReadReq accesses(hits+misses)
system.cpu1.icache.ReadReq_miss_rate::.cpu1.inst     0.015554                       # miss rate for ReadReq accesses
system.cpu1.icache.ReadReq_miss_rate::total     0.015554                       # miss rate for ReadReq accesses
system.cpu1.icache.ReadReq_avg_miss_latency::.cpu1.inst 11068.131587                       # average ReadReq miss latency
system.cpu1.icache.ReadReq_avg_miss_latency::total 11068.131587                       # average ReadReq miss latency
system.cpu1.icache.ReadReq_mshr_misses::.cpu1.inst     20240191                       # number of ReadReq MSHR misses
system.cpu1.icache.ReadReq_mshr_misses::total     20240191                       # number of ReadReq MSHR misses
system.cpu1.icache.ReadReq_mshr_miss_latency::.cpu1.inst 210541130118                       # number of ReadReq MSHR miss cycles
system.cpu1.icache.ReadReq_mshr_miss_latency::total 210541130118                       # number of ReadReq MSHR miss cycles
system.cpu1.icache.ReadReq_mshr_miss_rate::.cpu1.inst     0.015554                       # mshr miss rate for ReadReq accesses
system.cpu1.icache.ReadReq_mshr_miss_rate::total     0.015554                       # mshr miss rate for ReadReq accesses
system.cpu1.icache.ReadReq_avg_mshr_miss_latency::.cpu1.inst 10402.131587                       # average ReadReq mshr miss latency
system.cpu1.icache.ReadReq_avg_mshr_miss_latency::total 10402.131587                       # average ReadReq mshr miss latency
system.cpu1.icache.tags.pwrStateResidencyTicks::UNDEFINED 2490139323045                       # Cumulative time (in ticks) in various power states
system.cpu1.icache.tags.tagsinuse          511.980379                       # Cycle average of tags in use
system.cpu1.icache.tags.total_refs         1301269561                       # Total number of references to valid blocks.
system.cpu1.icache.tags.sampled_refs         20240191                       # Sample count of references to valid blocks.
system.cpu1.icache.tags.avg_refs            64.291368                       # Average number of references to valid blocks.
system.cpu1.icache.tags.warmup_cycle            88245                       # Cycle when the warmup percentage was hit.
system.cpu1.icache.tags.occ_blocks::.cpu1.inst   511.980379                       # Average occupied blocks per requestor
system.cpu1.icache.tags.occ_percent::.cpu1.inst     0.999962                       # Average percentage of cache occupancy
system.cpu1.icache.tags.occ_percent::total     0.999962                       # Average percentage of cache occupancy
system.cpu1.icache.tags.occ_task_id_blocks::1024          512                       # Occupied blocks per task id
system.cpu1.icache.tags.age_task_id_blocks_1024::1          346                       # Occupied blocks per task id
system.cpu1.icache.tags.age_task_id_blocks_1024::2          133                       # Occupied blocks per task id
system.cpu1.icache.tags.age_task_id_blocks_1024::3           31                       # Occupied blocks per task id
system.cpu1.icache.tags.age_task_id_blocks_1024::4            2                       # Occupied blocks per task id
system.cpu1.icache.tags.occ_task_id_percent::1024            1                       # Percentage of cache occupancy per task id
system.cpu1.icache.tags.tag_accesses      10430396679                       # Number of tag accesses
system.cpu1.icache.tags.data_accesses     10430396679                       # Number of data accesses
system.cpu1.icache.tags.repl_invalid                0                       # Number of initial replacements
system.cpu1.icache.tags.repl_valid_tag              0                       # Number of local replacements
system.cpu1.icache.tags.repl_valid_data             0                       # Number of global replacements
system.cpu1.dtb.walker.pwrStateResidencyTicks::UNDEFINED 2490139323045                       # Cumulative time (in ticks) in various power states
system.cpu1.interrupts.clk_domain.clock          5328                       # Clock period in ticks
system.cpu1.itb_walker_cache.pwrStateResidencyTicks::UNDEFINED 2490139323045                       # Cumulative time (in ticks) in various power states
system.cpu1.itb_walker_cache.blocked_cycles::no_mshrs            0                       # number of cycles access was blocked
system.cpu1.itb_walker_cache.blocked_cycles::no_targets            0                       # number of cycles access was blocked
system.cpu1.itb_walker_cache.blocked::no_mshrs            0                       # number of cycles access was blocked
system.cpu1.itb_walker_cache.blocked::no_targets            0                       # number of cycles access was blocked
system.cpu1.itb_walker_cache.avg_blocked_cycles::no_mshrs          nan                       # average number of cycles each access was blocked
system.cpu1.itb_walker_cache.avg_blocked_cycles::no_targets          nan                       # average number of cycles each access was blocked
system.cpu1.itb_walker_cache.replacements            0                       # number of replacements
system.cpu1.itb_walker_cache.tags.pwrStateResidencyTicks::UNDEFINED 2490139323045                       # Cumulative time (in ticks) in various power states
system.cpu1.itb_walker_cache.tags.tagsinuse            0                       # Cycle average of tags in use
system.cpu1.itb_walker_cache.tags.total_refs            0                       # Total number of references to valid blocks.
system.cpu1.itb_walker_cache.tags.sampled_refs            0                       # Sample count of references to valid blocks.
system.cpu1.itb_walker_cache.tags.avg_refs          nan                       # Average number of references to valid blocks.
system.cpu1.itb_walker_cache.tags.warmup_cycle            0                       # Cycle when the warmup percentage was hit.
system.cpu1.itb_walker_cache.tags.tag_accesses            0                       # Number of tag accesses
system.cpu1.itb_walker_cache.tags.data_accesses            0                       # Number of data accesses
system.cpu1.itb_walker_cache.tags.repl_invalid            0                       # Number of initial replacements
system.cpu1.itb_walker_cache.tags.repl_valid_tag            0                       # Number of local replacements
system.cpu1.itb_walker_cache.tags.repl_valid_data            0                       # Number of global replacements
system.cpu1.itb.walker.pwrStateResidencyTicks::UNDEFINED 2490139323045                       # Cumulative time (in ticks) in various power states
system.cpu1.dtb_walker_cache.pwrStateResidencyTicks::UNDEFINED 2490139323045                       # Cumulative time (in ticks) in various power states
system.cpu1.dtb_walker_cache.blocked_cycles::no_mshrs            0                       # number of cycles access was blocked
system.cpu1.dtb_walker_cache.blocked_cycles::no_targets            0                       # number of cycles access was blocked
system.cpu1.dtb_walker_cache.blocked::no_mshrs            0                       # number of cycles access was blocked
system.cpu1.dtb_walker_cache.blocked::no_targets            0                       # number of cycles access was blocked
system.cpu1.dtb_walker_cache.avg_blocked_cycles::no_mshrs          nan                       # average number of cycles each access was blocked
system.cpu1.dtb_walker_cache.avg_blocked_cycles::no_targets          nan                       # average number of cycles each access was blocked
system.cpu1.dtb_walker_cache.replacements            0                       # number of replacements
system.cpu1.dtb_walker_cache.tags.pwrStateResidencyTicks::UNDEFINED 2490139323045                       # Cumulative time (in ticks) in various power states
system.cpu1.dtb_walker_cache.tags.tagsinuse            0                       # Cycle average of tags in use
system.cpu1.dtb_walker_cache.tags.total_refs            0                       # Total number of references to valid blocks.
system.cpu1.dtb_walker_cache.tags.sampled_refs            0                       # Sample count of references to valid blocks.
system.cpu1.dtb_walker_cache.tags.avg_refs          nan                       # Average number of references to valid blocks.
system.cpu1.dtb_walker_cache.tags.warmup_cycle            0                       # Cycle when the warmup percentage was hit.
system.cpu1.dtb_walker_cache.tags.tag_accesses            0                       # Number of tag accesses
system.cpu1.dtb_walker_cache.tags.data_accesses            0                       # Number of data accesses
system.cpu1.dtb_walker_cache.tags.repl_invalid            0                       # Number of initial replacements
system.cpu1.dtb_walker_cache.tags.repl_valid_tag            0                       # Number of local replacements
system.cpu1.dtb_walker_cache.tags.repl_valid_data            0                       # Number of global replacements
system.cpu1.dcache.pwrStateResidencyTicks::UNDEFINED 2490139323045                       # Cumulative time (in ticks) in various power states
system.cpu1.dcache.demand_hits::.cpu1.data    349927428                       # number of demand (read+write) hits
system.cpu1.dcache.demand_hits::total       349927428                       # number of demand (read+write) hits
system.cpu1.dcache.overall_hits::.cpu1.data    349927428                       # number of overall hits
system.cpu1.dcache.overall_hits::total      349927428                       # number of overall hits
system.cpu1.dcache.demand_misses::.cpu1.data    101858660                       # number of demand (read+write) misses
system.cpu1.dcache.demand_misses::total     101858660                       # number of demand (read+write) misses
system.cpu1.dcache.overall_misses::.cpu1.data    101858660                       # number of overall misses
system.cpu1.dcache.overall_misses::total    101858660                       # number of overall misses
system.cpu1.dcache.demand_miss_latency::.cpu1.data 1179966695823                       # number of demand (read+write) miss cycles
system.cpu1.dcache.demand_miss_latency::total 1179966695823                       # number of demand (read+write) miss cycles
system.cpu1.dcache.overall_miss_latency::.cpu1.data 1179966695823                       # number of overall miss cycles
system.cpu1.dcache.overall_miss_latency::total 1179966695823                       # number of overall miss cycles
system.cpu1.dcache.demand_accesses::.cpu1.data    451786088                       # number of demand (read+write) accesses
system.cpu1.dcache.demand_accesses::total    451786088                       # number of demand (read+write) accesses
system.cpu1.dcache.overall_accesses::.cpu1.data    451786088                       # number of overall (read+write) accesses
system.cpu1.dcache.overall_accesses::total    451786088                       # number of overall (read+write) accesses
system.cpu1.dcache.demand_miss_rate::.cpu1.data     0.225458                       # miss rate for demand accesses
system.cpu1.dcache.demand_miss_rate::total     0.225458                       # miss rate for demand accesses
system.cpu1.dcache.overall_miss_rate::.cpu1.data     0.225458                       # miss rate for overall accesses
system.cpu1.dcache.overall_miss_rate::total     0.225458                       # miss rate for overall accesses
system.cpu1.dcache.demand_avg_miss_latency::.cpu1.data 11584.353219                       # average overall miss latency
system.cpu1.dcache.demand_avg_miss_latency::total 11584.353219                       # average overall miss latency
system.cpu1.dcache.overall_avg_miss_latency::.cpu1.data 11584.353219                       # average overall miss latency
system.cpu1.dcache.overall_avg_miss_latency::total 11584.353219                       # average overall miss latency
system.cpu1.dcache.blocked_cycles::no_mshrs            0                       # number of cycles access was blocked
system.cpu1.dcache.blocked_cycles::no_targets            0                       # number of cycles access was blocked
system.cpu1.dcache.blocked::no_mshrs                0                       # number of cycles access was blocked
system.cpu1.dcache.blocked::no_targets              0                       # number of cycles access was blocked
system.cpu1.dcache.avg_blocked_cycles::no_mshrs          nan                       # average number of cycles each access was blocked
system.cpu1.dcache.avg_blocked_cycles::no_targets          nan                       # average number of cycles each access was blocked
system.cpu1.dcache.writebacks::.writebacks     62158342                       # number of writebacks
system.cpu1.dcache.writebacks::total         62158342                       # number of writebacks
system.cpu1.dcache.demand_mshr_misses::.cpu1.data    101858660                       # number of demand (read+write) MSHR misses
system.cpu1.dcache.demand_mshr_misses::total    101858660                       # number of demand (read+write) MSHR misses
system.cpu1.dcache.overall_mshr_misses::.cpu1.data    101858660                       # number of overall MSHR misses
system.cpu1.dcache.overall_mshr_misses::total    101858660                       # number of overall MSHR misses
system.cpu1.dcache.demand_mshr_miss_latency::.cpu1.data 1112128828263                       # number of demand (read+write) MSHR miss cycles
system.cpu1.dcache.demand_mshr_miss_latency::total 1112128828263                       # number of demand (read+write) MSHR miss cycles
system.cpu1.dcache.overall_mshr_miss_latency::.cpu1.data 1112128828263                       # number of overall MSHR miss cycles
system.cpu1.dcache.overall_mshr_miss_latency::total 1112128828263                       # number of overall MSHR miss cycles
system.cpu1.dcache.demand_mshr_miss_rate::.cpu1.data     0.225458                       # mshr miss rate for demand accesses
system.cpu1.dcache.demand_mshr_miss_rate::total     0.225458                       # mshr miss rate for demand accesses
system.cpu1.dcache.overall_mshr_miss_rate::.cpu1.data     0.225458                       # mshr miss rate for overall accesses
system.cpu1.dcache.overall_mshr_miss_rate::total     0.225458                       # mshr miss rate for overall accesses
system.cpu1.dcache.demand_avg_mshr_miss_latency::.cpu1.data 10918.353219                       # average overall mshr miss latency
system.cpu1.dcache.demand_avg_mshr_miss_latency::total 10918.353219                       # average overall mshr miss latency
system.cpu1.dcache.overall_avg_mshr_miss_latency::.cpu1.data 10918.353219                       # average overall mshr miss latency
system.cpu1.dcache.overall_avg_mshr_miss_latency::total 10918.353219                       # average overall mshr miss latency
system.cpu1.dcache.replacements             101858652                       # number of replacements
system.cpu1.dcache.ReadReq_hits::.cpu1.data    206992787                       # number of ReadReq hits
system.cpu1.dcache.ReadReq_hits::total      206992787                       # number of ReadReq hits
system.cpu1.dcache.ReadReq_misses::.cpu1.data     80643973                       # number of ReadReq misses
system.cpu1.dcache.ReadReq_misses::total     80643973                       # number of ReadReq misses
system.cpu1.dcache.ReadReq_miss_latency::.cpu1.data 900738000360                       # number of ReadReq miss cycles
system.cpu1.dcache.ReadReq_miss_latency::total 900738000360                       # number of ReadReq miss cycles
system.cpu1.dcache.ReadReq_accesses::.cpu1.data    287636760                       # number of ReadReq accesses(hits+misses)
system.cpu1.dcache.ReadReq_accesses::total    287636760                       # number of ReadReq accesses(hits+misses)
system.cpu1.dcache.ReadReq_miss_rate::.cpu1.data     0.280367                       # miss rate for ReadReq accesses
system.cpu1.dcache.ReadReq_miss_rate::total     0.280367                       # miss rate for ReadReq accesses
system.cpu1.dcache.ReadReq_avg_miss_latency::.cpu1.data 11169.315782                       # average ReadReq miss latency
system.cpu1.dcache.ReadReq_avg_miss_latency::total 11169.315782                       # average ReadReq miss latency
system.cpu1.dcache.ReadReq_mshr_misses::.cpu1.data     80643973                       # number of ReadReq MSHR misses
system.cpu1.dcache.ReadReq_mshr_misses::total     80643973                       # number of ReadReq MSHR misses
system.cpu1.dcache.ReadReq_mshr_miss_latency::.cpu1.data 847029114342                       # number of ReadReq MSHR miss cycles
system.cpu1.dcache.ReadReq_mshr_miss_latency::total 847029114342                       # number of ReadReq MSHR miss cycles
system.cpu1.dcache.ReadReq_mshr_miss_rate::.cpu1.data     0.280367                       # mshr miss rate for ReadReq accesses
system.cpu1.dcache.ReadReq_mshr_miss_rate::total     0.280367                       # mshr miss rate for ReadReq accesses
system.cpu1.dcache.ReadReq_avg_mshr_miss_latency::.cpu1.data 10503.315782                       # average ReadReq mshr miss latency
system.cpu1.dcache.ReadReq_avg_mshr_miss_latency::total 10503.315782                       # average ReadReq mshr miss latency
system.cpu1.dcache.WriteReq_hits::.cpu1.data    142934641                       # number of WriteReq hits
[...]
system.mem_ctrls.wrQLenPdf::112                     0                       # What write queue length does an incoming req see
system.mem_ctrls.wrQLenPdf::113                     0                       # What write queue length does an incoming req see
system.mem_ctrls.wrQLenPdf::114                     0                       # What write queue length does an incoming req see
system.mem_ctrls.wrQLenPdf::115                     0                       # What write queue length does an incoming req see
system.mem_ctrls.wrQLenPdf::116                     0                       # What write queue length does an incoming req see
system.mem_ctrls.wrQLenPdf::117                     0                       # What write queue length does an incoming req see
system.mem_ctrls.wrQLenPdf::118                     0                       # What write queue length does an incoming req see
system.mem_ctrls.wrQLenPdf::119                     0                       # What write queue length does an incoming req see
system.mem_ctrls.wrQLenPdf::120                     0                       # What write queue length does an incoming req see
system.mem_ctrls.wrQLenPdf::121                     0                       # What write queue length does an incoming req see
system.mem_ctrls.wrQLenPdf::122                     0                       # What write queue length does an incoming req see
system.mem_ctrls.wrQLenPdf::123                     0                       # What write queue length does an incoming req see
system.mem_ctrls.wrQLenPdf::124                     0                       # What write queue length does an incoming req see
system.mem_ctrls.wrQLenPdf::125                     0                       # What write queue length does an incoming req see
system.mem_ctrls.wrQLenPdf::126                     0                       # What write queue length does an incoming req see
system.mem_ctrls.wrQLenPdf::127                     0                       # What write queue length does an incoming req see
system.mem_ctrls.bytesPerActivate::samples      1293017                       # Bytes accessed per row activation
system.mem_ctrls.bytesPerActivate::mean            64                       # Bytes accessed per row activation
system.mem_ctrls.bytesPerActivate::gmean    64.000000                       # Bytes accessed per row activation
system.mem_ctrls.bytesPerActivate::64-71      1293017    100.00%    100.00% # Bytes accessed per row activation
system.mem_ctrls.bytesPerActivate::total      1293017                       # Bytes accessed per row activation
system.mem_ctrls.rdPerTurnAround::samples        18542                       # Reads before turning the bus around for writes
system.mem_ctrls.rdPerTurnAround::mean      51.872344                       # Reads before turning the bus around for writes
system.mem_ctrls.rdPerTurnAround::gmean     26.505469                       # Reads before turning the bus around for writes
system.mem_ctrls.rdPerTurnAround::stdev   1362.150876                       # Reads before turning the bus around for writes
system.mem_ctrls.rdPerTurnAround::0-4095        18541     99.99%     99.99% # Reads before turning the bus around for writes
system.mem_ctrls.rdPerTurnAround::184320-188415            1      0.01%    100.00% # Reads before turning the bus around for writes
system.mem_ctrls.rdPerTurnAround::total         18542                       # Reads before turning the bus around for writes
system.mem_ctrls.wrPerTurnAround::samples        18542                       # Writes before turning the bus around for reads
system.mem_ctrls.wrPerTurnAround::mean      17.861558                       # Writes before turning the bus around for reads
system.mem_ctrls.wrPerTurnAround::gmean     17.853941                       # Writes before turning the bus around for reads
system.mem_ctrls.wrPerTurnAround::stdev      0.504530                       # Writes before turning the bus around for reads
system.mem_ctrls.wrPerTurnAround::16             1249      6.74%      6.74% # Writes before turning the bus around for reads
system.mem_ctrls.wrPerTurnAround::17               74      0.40%      7.14% # Writes before turning the bus around for reads
system.mem_ctrls.wrPerTurnAround::18            17214     92.84%     99.97% # Writes before turning the bus around for reads
system.mem_ctrls.wrPerTurnAround::19                5      0.03%    100.00% # Writes before turning the bus around for reads
system.mem_ctrls.wrPerTurnAround::total         18542                       # Writes before turning the bus around for reads
system.mem_ctrls.bytesReadDRAM               61556992                       # Total number of bytes read from DRAM
system.mem_ctrls.bytesReadWrQ                   56576                       # Total number of bytes read from write queue
system.mem_ctrls.bytesWritten                21196096                       # Total number of bytes written to DRAM
system.mem_ctrls.bytesReadSys                61613568                       # Total read bytes from the system interface side
system.mem_ctrls.bytesWrittenSys             21199808                       # Total written bytes from the system interface side
system.mem_ctrls.avgRdBW                        24.72                       # Average DRAM read bandwidth in MiByte/s
system.mem_ctrls.avgWrBW                         8.51                       # Average achieved write bandwidth in MiByte/s
system.mem_ctrls.avgRdBWSys                     24.74                       # Average system read bandwidth in MiByte/s
system.mem_ctrls.avgWrBWSys                      8.51                       # Average system write bandwidth in MiByte/s
system.mem_ctrls.peakBW                      19207.00                       # Theoretical peak bandwidth in MiByte/s
system.mem_ctrls.busUtil                         0.17                       # Data bus utilization in percentage
system.mem_ctrls.busUtilRead                     0.13                       # Data bus utilization in percentage for reads
system.mem_ctrls.busUtilWrite                    0.04                       # Data bus utilization in percentage for writes
system.mem_ctrls.totGap                  2490136781256                       # Total gap between requests
system.mem_ctrls.avgGap                    1924432.52                       # Average gap between requests
system.mem_ctrls.masterReadBytes::.cpu0.inst        28736                       # Per-master bytes read from memory
system.mem_ctrls.masterReadBytes::.cpu0.data     22238464                       # Per-master bytes read from memory
system.mem_ctrls.masterReadBytes::.cpu1.inst      1059968                       # Per-master bytes read from memory
system.mem_ctrls.masterReadBytes::.cpu1.data     38229824                       # Per-master bytes read from memory
system.mem_ctrls.masterWriteBytes::.writebacks     21196096                       # Per-master bytes write to memory
system.mem_ctrls.masterReadRate::.cpu0.inst 11539.916555697355                       # Per-master bytes read from memory rate (Bytes/sec)
system.mem_ctrls.masterReadRate::.cpu0.data 8930610.345450988039                       # Per-master bytes read from memory rate (Bytes/sec)
system.mem_ctrls.masterReadRate::.cpu1.inst 425666.142528863216                       # Per-master bytes read from memory rate (Bytes/sec)
system.mem_ctrls.masterReadRate::.cpu1.data 15352483.953890452161                       # Per-master bytes read from memory rate (Bytes/sec)
system.mem_ctrls.masterWriteRate::.writebacks 8512012.080545324832                       # Per-master bytes write to memory rate (Bytes/sec)
system.mem_ctrls.masterReadAccesses::.cpu0.inst          449                       # Per-master read serviced memory accesses
system.mem_ctrls.masterReadAccesses::.cpu0.data       347476                       # Per-master read serviced memory accesses
system.mem_ctrls.masterReadAccesses::.cpu1.inst        16562                       # Per-master read serviced memory accesses
system.mem_ctrls.masterReadAccesses::.cpu1.data       598225                       # Per-master read serviced memory accesses
system.mem_ctrls.masterWriteAccesses::.writebacks       331247                       # Per-master write serviced memory accesses
system.mem_ctrls.masterReadTotalLat::.cpu0.inst     16199432                       # Per-master read total memory access latency
system.mem_ctrls.masterReadTotalLat::.cpu0.data  13986651672                       # Per-master read total memory access latency
system.mem_ctrls.masterReadTotalLat::.cpu1.inst    628000436                       # Per-master read total memory access latency
system.mem_ctrls.masterReadTotalLat::.cpu1.data  23359783967                       # Per-master read total memory access latency
system.mem_ctrls.masterWriteTotalLat::.writebacks 137101174940955                       # Per-master write total memory access latency
system.mem_ctrls.masterReadAvgLat::.cpu0.inst     36078.91                       # Per-master read average memory access latency
system.mem_ctrls.masterReadAvgLat::.cpu0.data     40252.14                       # Per-master read average memory access latency
system.mem_ctrls.masterReadAvgLat::.cpu1.inst     37918.15                       # Per-master read average memory access latency
system.mem_ctrls.masterReadAvgLat::.cpu1.data     39048.49                       # Per-master read average memory access latency
system.mem_ctrls.masterWriteAvgLat::.writebacks 413894087.92                       # Per-master write average memory access latency
system.mem_ctrls.pageHitRate                     0.00                       # Row buffer hit rate, read and write combined
system.mem_ctrls.rank1.actEnergy         1006535104.848996                       # Energy for activate commands per rank (pJ)
system.mem_ctrls.rank1.preEnergy         1776921588.942015                       # Energy for precharge commands per rank (pJ)
system.mem_ctrls.rank1.readEnergy        1317254191.482100                       # Energy for read commands per rank (pJ)
system.mem_ctrls.rank1.writeEnergy       389791540.992103                       # Energy for write commands per rank (pJ)
system.mem_ctrls.rank1.refreshEnergy     216158204572.526611                       # Energy for refresh commands per rank (pJ)
system.mem_ctrls.rank1.actBackEnergy     58950115393.817062                       # Energy for active background per rank (pJ)
system.mem_ctrls.rank1.preBackEnergy     772084948723.038086                       # Energy for precharge background per rank (pJ)
system.mem_ctrls.rank1.actPowerDownEnergy            0                       # Energy for active power-down per rank (pJ)
system.mem_ctrls.rank1.prePowerDownEnergy            0                       # Energy for precharge power-down per rank (pJ)
system.mem_ctrls.rank1.selfRefreshEnergy            0                       # Energy for self refresh per rank (pJ)
system.mem_ctrls.rank1.totalEnergy       1051683771123.155029                       # Total energy per rank (pJ)
system.mem_ctrls.rank1.averagePower        422.339329                       # Core power per rank (mW)
system.mem_ctrls.rank1.totalIdleTime                0                       # Total Idle time Per DRAM Rank
system.mem_ctrls.rank1.memoryStateTime::IDLE 2354175306011                       # Time in different power states
system.mem_ctrls.rank1.memoryStateTime::REF 111940150000                       # Time in different power states
system.mem_ctrls.rank1.memoryStateTime::SREF            0                       # Time in different power states
system.mem_ctrls.rank1.memoryStateTime::PRE_PDN            0                       # Time in different power states
system.mem_ctrls.rank1.memoryStateTime::ACT  24023867034                       # Time in different power states
system.mem_ctrls.rank1.memoryStateTime::ACT_PDN            0                       # Time in different power states
system.mem_ctrls.rank0.actEnergy         1009764572.544994                       # Energy for activate commands per rank (pJ)
system.mem_ctrls.rank0.preEnergy         1782622841.528435                       # Energy for precharge commands per rank (pJ)
system.mem_ctrls.rank0.readEnergy        1320946138.112500                       # Energy for read commands per rank (pJ)
system.mem_ctrls.rank0.writeEnergy       391501856.592103                       # Energy for write commands per rank (pJ)
system.mem_ctrls.rank0.refreshEnergy     216158204572.526611                       # Energy for refresh commands per rank (pJ)
system.mem_ctrls.rank0.actBackEnergy     58971918115.238144                       # Energy for active background per rank (pJ)
system.mem_ctrls.rank0.preBackEnergy     772069897098.119263                       # Energy for precharge background per rank (pJ)
system.mem_ctrls.rank0.actPowerDownEnergy            0                       # Energy for active power-down per rank (pJ)
system.mem_ctrls.rank0.prePowerDownEnergy            0                       # Energy for precharge power-down per rank (pJ)
system.mem_ctrls.rank0.selfRefreshEnergy            0                       # Energy for self refresh per rank (pJ)
system.mem_ctrls.rank0.totalEnergy       1051704855202.145264                       # Total energy per rank (pJ)
system.mem_ctrls.rank0.averagePower        422.347796                       # Core power per rank (mW)
system.mem_ctrls.rank0.totalIdleTime                0                       # Total Idle time Per DRAM Rank
system.mem_ctrls.rank0.memoryStateTime::IDLE 2354113964699                       # Time in different power states
system.mem_ctrls.rank0.memoryStateTime::REF 111940150000                       # Time in different power states
system.mem_ctrls.rank0.memoryStateTime::SREF            0                       # Time in different power states
system.mem_ctrls.rank0.memoryStateTime::PRE_PDN            0                       # Time in different power states
system.mem_ctrls.rank0.memoryStateTime::ACT  24085208346                       # Time in different power states
system.mem_ctrls.rank0.memoryStateTime::ACT_PDN            0                       # Time in different power states
system.cpu_clk_domain.clock                       333                       # Clock period in ticks
system.tol2bus.pwrStateResidencyTicks::UNDEFINED 2490139323045                       # Cumulative time (in ticks) in various power states
system.tol2bus.trans_dist::ReadResp         101232273                       # Transaction distribution
system.tol2bus.trans_dist::WritebackDirty     62490103                       # Transaction distribution
system.tol2bus.trans_dist::WritebackClean     20239697                       # Transaction distribution
system.tol2bus.trans_dist::CleanEvict        40418324                       # Transaction distribution
system.tol2bus.trans_dist::ReadExReq         21214943                       # Transaction distribution
system.tol2bus.trans_dist::ReadExResp        21214943                       # Transaction distribution
system.tol2bus.trans_dist::ReadCleanReq      20240640                       # Transaction distribution
system.tol2bus.trans_dist::ReadSharedReq     80991633                       # Transaction distribution
system.tol2bus.pkt_count_system.cpu0.icache.mem_side::system.l2.cpu_side          916                       # Packet count per connected master and slave (bytes)
system.tol2bus.pkt_count_system.cpu0.dcache.mem_side::system.l2.cpu_side      1043740                       # Packet count per connected master and slave (bytes)
system.tol2bus.pkt_count_system.cpu1.icache.mem_side::system.l2.cpu_side     60720061                       # Packet count per connected master and slave (bytes)
system.tol2bus.pkt_count_system.cpu1.dcache.mem_side::system.l2.cpu_side    305575972                       # Packet count per connected master and slave (bytes)
system.tol2bus.pkt_count::total             367340689                       # Packet count per connected master and slave (bytes)
system.tol2bus.pkt_size_system.cpu0.icache.mem_side::system.l2.cpu_side        29888                       # Cumulative packet size per connected master and slave (bytes)
system.tol2bus.pkt_size_system.cpu0.dcache.mem_side::system.l2.cpu_side     22299520                       # Cumulative packet size per connected master and slave (bytes)
system.tol2bus.pkt_size_system.cpu1.icache.mem_side::system.l2.cpu_side   2590711680                       # Cumulative packet size per connected master and slave (bytes)
system.tol2bus.pkt_size_system.cpu1.dcache.mem_side::system.l2.cpu_side  10497088128                       # Cumulative packet size per connected master and slave (bytes)
system.tol2bus.pkt_size::total            13110129216                       # Cumulative packet size per connected master and slave (bytes)
system.tol2bus.snoops                          701867                       # Total snoops (count)
system.tol2bus.snoopTraffic                  21199808                       # Total snoop traffic (bytes)
system.tol2bus.snoop_fanout::samples        123149083                       # Request fanout histogram
system.tol2bus.snoop_fanout::mean            0.000014                       # Request fanout histogram
system.tol2bus.snoop_fanout::stdev           0.003758                       # Request fanout histogram
system.tol2bus.snoop_fanout::underflows             0      0.00%      0.00% # Request fanout histogram
system.tol2bus.snoop_fanout::0              123147344    100.00%    100.00% # Request fanout histogram
system.tol2bus.snoop_fanout::1                   1739      0.00%    100.00% # Request fanout histogram
system.tol2bus.snoop_fanout::2                      0      0.00%    100.00% # Request fanout histogram
system.tol2bus.snoop_fanout::3                      0      0.00%    100.00% # Request fanout histogram
system.tol2bus.snoop_fanout::4                      0      0.00%    100.00% # Request fanout histogram
system.tol2bus.snoop_fanout::5                      0      0.00%    100.00% # Request fanout histogram
system.tol2bus.snoop_fanout::6                      0      0.00%    100.00% # Request fanout histogram
system.tol2bus.snoop_fanout::7                      0      0.00%    100.00% # Request fanout histogram
system.tol2bus.snoop_fanout::8                      0      0.00%    100.00% # Request fanout histogram
system.tol2bus.snoop_fanout::overflows              0      0.00%    100.00% # Request fanout histogram
system.tol2bus.snoop_fanout::min_value              0                       # Request fanout histogram
system.tol2bus.snoop_fanout::max_value              1                       # Request fanout histogram
system.tol2bus.snoop_fanout::total          123149083                       # Request fanout histogram
system.tol2bus.reqLayer0.occupancy       136426962807                       # Layer occupancy (ticks)
system.tol2bus.reqLayer0.utilization              5.5                       # Layer utilization (%)
system.tol2bus.respLayer5.occupancy      101756801340                       # Layer occupancy (ticks)
system.tol2bus.respLayer5.utilization             4.1                       # Layer utilization (%)
system.tol2bus.respLayer4.occupancy       20219950809                       # Layer occupancy (ticks)
system.tol2bus.respLayer4.utilization             0.8                       # Layer utilization (%)
system.tol2bus.respLayer1.occupancy         349258628                       # Layer occupancy (ticks)
system.tol2bus.respLayer1.utilization             0.0                       # Layer utilization (%)
system.tol2bus.respLayer0.occupancy            449547                       # Layer occupancy (ticks)
system.tol2bus.respLayer0.utilization             0.0                       # Layer utilization (%)

---------- End Simulation Statistics   ----------
